/*---------------------------------------------------------------------------*\
| =========                 |                                                 |
| \\      /  F ield         | OpenFOAM: The Open Source CFD Toolbox           |
|  \\    /   O peration     | Version:  5.0                                   |
|   \\  /    A nd           | Web:      www.OpenFOAM.org                      |
|    \\/     M anipulation  |                                                 |
\*---------------------------------------------------------------------------*/
Build  : 5.0
Exec   : chtMultiRegionSimpleFoam
Date   : Jun 09 2020
Time   : 11:35:13
Host   : "panacea"
PID    : 7337
I/O    : uncollated
Case   : /home/zeeburg/Documents/CIMEC/Cursos/MMC_sin_GIThub/adscripciones/intercambiador_calor/foam/heatExchanger
nProcs : 1
sigFpe : Enabling floating point exception trapping (FOAM_SIGFPE).
fileModificationChecking : Monitoring run-time modified files using timeStampMaster (fileModificationSkew 10)
allowSystemOperations : Allowing user-supplied system call operations

// * * * * * * * * * * * * * * * * * * * * * * * * * * * * * * * * * * * * * //
Create time

Create fluid mesh for region air for time = 0

Create fluid mesh for region porous for time = 0

*** Reading fluid mesh thermophysical properties for region air

    Adding to thermoFluid

Selecting thermodynamics package 
{
    type            heRhoThermo;
    mixture         pureMixture;
    transport       polynomial;
    thermo          hPolynomial;
    equationOfState icoPolynomial;
    specie          specie;
    energy          sensibleEnthalpy;
}

    Adding to rhoFluid

    Adding to UFluid

    Adding to phiFluid

    Adding to gFluid

    Adding to hRefFluid

    Adding to ghFluid

    Adding to ghfFluid

    Adding to turbulence

Selecting turbulence model type RAS
Selecting RAS turbulence model kEpsilon
RAS
{
    RASModel        kEpsilon;
    turbulence      on;
    printCoeffs     on;
    Cmu             0.09;
    C1              1.44;
    C2              1.92;
    C3              0;
    sigmak          1;
    sigmaEps        1.3;
}

Selecting radiationModel none
    Adding MRF

Creating MRF zone list from MRFProperties
    creating MRF zone: MRF1
    Adding fvOptions

Creating finite volume options from "constant/fvOptions"

Selecting finite volume options model type constantHeatTransfer
    Source: airToporous
Selecting finite volume options model type interRegionExplicitPorositySource
    Source: porosityBlockage
- selecting inter region mapping
Creating mesh-to-mesh addressing for air and porous regions using cellVolumeWeight
    Overlap volume: 0.0075
*** Reading fluid mesh thermophysical properties for region porous

    Adding to thermoFluid

Selecting thermodynamics package 
{
    type            heRhoThermo;
    mixture         pureMixture;
    transport       polynomial;
    thermo          hPolynomial;
    equationOfState icoPolynomial;
    specie          specie;
    energy          sensibleEnthalpy;
}

    Adding to rhoFluid

    Adding to UFluid

    Adding to phiFluid

    Adding to gFluid

    Adding to hRefFluid

    Adding to ghFluid

    Adding to ghfFluid

    Adding to turbulence

Selecting turbulence model type laminar
Selecting laminar stress model Stokes
Radiation model not active: radiationProperties not found
Selecting radiationModel none
    Adding MRF

No MRF models present

    Adding fvOptions

Creating finite volume options from "constant/fvOptions"

Selecting finite volume options model type constantHeatTransfer
    Source: porousToair
- selecting inter region mapping
Creating mesh-to-mesh addressing for porous and air regions using cellVolumeWeight
    Overlap volume: 0.0075
Time = 1


Solving for fluid region air
Porosity region porosityBlockage:
    selecting model: DarcyForchheimer
    creating porous zone: porosityBlockage:porous
DILUPBiCGStab:  Solving for Ux, Initial residual = 1, Final residual = 0.00867447, No Iterations 1
DILUPBiCGStab:  Solving for Uy, Initial residual = 1, Final residual = 0.00867447, No Iterations 1
DILUPBiCGStab:  Solving for Uz, Initial residual = 1, Final residual = 0.00351287, No Iterations 1
DILUPBiCGStab:  Solving for h, Initial residual = 1, Final residual = 0.00447769, No Iterations 1
Min/max T:300 300.018
GAMG:  Solving for p_rgh, Initial residual = 1, Final residual = 0.00834252, No Iterations 12
time step continuity errors : sum local = 0.0425249, global = -0.0039485, cumulative = -0.0039485
Min/max rho:1.17074 1.17081
DILUPBiCGStab:  Solving for epsilon, Initial residual = 0.0396654, Final residual = 0.000135803, No Iterations 1
DILUPBiCGStab:  Solving for k, Initial residual = 1, Final residual = 0.00742056, No Iterations 1

Solving for fluid region porous
DILUPBiCGStab:  Solving for Ux, Initial residual = 1, Final residual = 0.0058807, No Iterations 1
DILUPBiCGStab:  Solving for Uy, Initial residual = 0.940955, Final residual = 0.00782108, No Iterations 1
DILUPBiCGStab:  Solving for Uz, Initial residual = 0.99216, Final residual = 0.00431662, No Iterations 1
DILUPBiCGStab:  Solving for h, Initial residual = 1, Final residual = 0.00798012, No Iterations 1
Min/max T:349.984 400
GAMG:  Solving for p_rgh, Initial residual = 0.999996, Final residual = 0.00637825, No Iterations 9
time step continuity errors : sum local = 0.00103378, global = 0.000459295, cumulative = -0.0034892
Min/max rho:1000 1000
ExecutionTime = 121.62 s  ClockTime = 124 s

Time = 2


Solving for fluid region air
DILUPBiCGStab:  Solving for Ux, Initial residual = 0.406573, Final residual = 0.00167472, No Iterations 1
DILUPBiCGStab:  Solving for Uy, Initial residual = 0.40636, Final residual = 0.00167254, No Iterations 1
DILUPBiCGStab:  Solving for Uz, Initial residual = 0.765183, Final residual = 0.0023406, No Iterations 1
DILUPBiCGStab:  Solving for h, Initial residual = 0.243018, Final residual = 0.00139328, No Iterations 1
Min/max T:299.894 300.18
GAMG:  Solving for p_rgh, Initial residual = 0.363914, Final residual = 0.00354748, No Iterations 9
time step continuity errors : sum local = 0.244713, global = -0.0613135, cumulative = -0.0648027
Min/max rho:1.17007 1.17125
DILUPBiCGStab:  Solving for epsilon, Initial residual = 0.0494827, Final residual = 0.000242388, No Iterations 1
DILUPBiCGStab:  Solving for k, Initial residual = 0.703339, Final residual = 0.00513939, No Iterations 1

Solving for fluid region porous
DILUPBiCGStab:  Solving for Ux, Initial residual = 0.303024, Final residual = 0.00288616, No Iterations 1
DILUPBiCGStab:  Solving for Uy, Initial residual = 0.408358, Final residual = 0.00477583, No Iterations 1
DILUPBiCGStab:  Solving for Uz, Initial residual = 0.395902, Final residual = 0.00648237, No Iterations 1
DILUPBiCGStab:  Solving for h, Initial residual = 0.211496, Final residual = 0.00211141, No Iterations 1
Min/max T:349.965 400
GAMG:  Solving for p_rgh, Initial residual = 0.0160611, Final residual = 4.85e-05, No Iterations 8
time step continuity errors : sum local = 0.000447141, global = -7.19263e-05, cumulative = -0.0648746
Min/max rho:1000 1000
ExecutionTime = 124.17 s  ClockTime = 126 s

Time = 3


Solving for fluid region air
DILUPBiCGStab:  Solving for Ux, Initial residual = 0.122973, Final residual = 0.000472405, No Iterations 1
DILUPBiCGStab:  Solving for Uy, Initial residual = 0.124345, Final residual = 0.000475856, No Iterations 1
DILUPBiCGStab:  Solving for Uz, Initial residual = 0.269357, Final residual = 0.000846675, No Iterations 1
DILUPBiCGStab:  Solving for h, Initial residual = 0.127739, Final residual = 0.00062785, No Iterations 1
Min/max T:299.9 300.287
GAMG:  Solving for p_rgh, Initial residual = 0.391357, Final residual = 0.00283897, No Iterations 11
time step continuity errors : sum local = 0.07723, global = -0.0266191, cumulative = -0.0914937
Min/max rho:1.16963 1.17122
DILUPBiCGStab:  Solving for epsilon, Initial residual = 0.0425329, Final residual = 0.000212132, No Iterations 1
DILUPBiCGStab:  Solving for k, Initial residual = 0.171537, Final residual = 0.00125906, No Iterations 1

Solving for fluid region porous
DILUPBiCGStab:  Solving for Ux, Initial residual = 0.194283, Final residual = 0.00200551, No Iterations 1
DILUPBiCGStab:  Solving for Uy, Initial residual = 0.253109, Final residual = 0.00292813, No Iterations 1
DILUPBiCGStab:  Solving for Uz, Initial residual = 0.24086, Final residual = 0.00391634, No Iterations 1
DILUPBiCGStab:  Solving for h, Initial residual = 0.122821, Final residual = 0.00120986, No Iterations 1
Min/max T:349.944 400
GAMG:  Solving for p_rgh, Initial residual = 0.0104819, Final residual = 3.96557e-05, No Iterations 8
time step continuity errors : sum local = 0.000454584, global = 7.19561e-05, cumulative = -0.0914218
Min/max rho:1000 1000
ExecutionTime = 126.91 s  ClockTime = 129 s

Time = 4


Solving for fluid region air
DILUPBiCGStab:  Solving for Ux, Initial residual = 0.0731848, Final residual = 0.00038871, No Iterations 1
DILUPBiCGStab:  Solving for Uy, Initial residual = 0.070009, Final residual = 0.000374, No Iterations 1
DILUPBiCGStab:  Solving for Uz, Initial residual = 0.211953, Final residual = 0.000670495, No Iterations 1
DILUPBiCGStab:  Solving for h, Initial residual = 0.0867411, Final residual = 0.00041988, No Iterations 1
Min/max T:299.921 300.397
GAMG:  Solving for p_rgh, Initial residual = 0.325865, Final residual = 0.00185602, No Iterations 8
time step continuity errors : sum local = 0.0349509, global = 0.0136321, cumulative = -0.0777897
Min/max rho:1.16918 1.17114
DILUPBiCGStab:  Solving for epsilon, Initial residual = 0.0210972, Final residual = 0.000111558, No Iterations 1
DILUPBiCGStab:  Solving for k, Initial residual = 0.0689827, Final residual = 0.000507623, No Iterations 1

Solving for fluid region porous
DILUPBiCGStab:  Solving for Ux, Initial residual = 0.122447, Final residual = 0.00121161, No Iterations 1
DILUPBiCGStab:  Solving for Uy, Initial residual = 0.153915, Final residual = 0.00172647, No Iterations 1
DILUPBiCGStab:  Solving for Uz, Initial residual = 0.136884, Final residual = 0.00219407, No Iterations 1
DILUPBiCGStab:  Solving for h, Initial residual = 0.0864829, Final residual = 0.000742225, No Iterations 1
Min/max T:349.92 400
GAMG:  Solving for p_rgh, Initial residual = 0.00770039, Final residual = 3.66723e-05, No Iterations 8
time step continuity errors : sum local = 0.00032865, global = 4.96478e-05, cumulative = -0.07774
Min/max rho:1000 1000
ExecutionTime = 130 s  ClockTime = 133 s

Time = 5


Solving for fluid region air
DILUPBiCGStab:  Solving for Ux, Initial residual = 0.069907, Final residual = 0.000342441, No Iterations 1
DILUPBiCGStab:  Solving for Uy, Initial residual = 0.0684454, Final residual = 0.000335465, No Iterations 1
DILUPBiCGStab:  Solving for Uz, Initial residual = 0.167818, Final residual = 0.00054574, No Iterations 1
DILUPBiCGStab:  Solving for h, Initial residual = 0.0661048, Final residual = 0.00030909, No Iterations 1
Min/max T:299.935 300.504
GAMG:  Solving for p_rgh, Initial residual = 0.337459, Final residual = 0.00246541, No Iterations 8
time step continuity errors : sum local = 0.0346166, global = 0.0134536, cumulative = -0.0642864
Min/max rho:1.16874 1.17108
DILUPBiCGStab:  Solving for epsilon, Initial residual = 0.0168446, Final residual = 8.5839e-05, No Iterations 1
DILUPBiCGStab:  Solving for k, Initial residual = 0.0482023, Final residual = 0.00034287, No Iterations 1

Solving for fluid region porous
DILUPBiCGStab:  Solving for Ux, Initial residual = 0.0817769, Final residual = 0.000786645, No Iterations 1
DILUPBiCGStab:  Solving for Uy, Initial residual = 0.104422, Final residual = 0.00108672, No Iterations 1
DILUPBiCGStab:  Solving for Uz, Initial residual = 0.0848364, Final residual = 0.00134888, No Iterations 1
DILUPBiCGStab:  Solving for h, Initial residual = 0.0672997, Final residual = 0.000515197, No Iterations 1
Min/max T:349.895 400
GAMG:  Solving for p_rgh, Initial residual = 0.00576283, Final residual = 4.7619e-05, No Iterations 7
time step continuity errors : sum local = 0.000331553, global = -0.000160465, cumulative = -0.0644469
Min/max rho:1000 1000
ExecutionTime = 132.92 s  ClockTime = 136 s

Time = 6


Solving for fluid region air
DILUPBiCGStab:  Solving for Ux, Initial residual = 0.0169862, Final residual = 8.4697e-05, No Iterations 1
DILUPBiCGStab:  Solving for Uy, Initial residual = 0.017081, Final residual = 8.42108e-05, No Iterations 1
DILUPBiCGStab:  Solving for Uz, Initial residual = 0.0341596, Final residual = 0.000154738, No Iterations 1
DILUPBiCGStab:  Solving for h, Initial residual = 0.0533889, Final residual = 0.00024128, No Iterations 1
Min/max T:299.945 300.605
GAMG:  Solving for p_rgh, Initial residual = 0.364821, Final residual = 0.00351897, No Iterations 8
time step continuity errors : sum local = 0.0255684, global = 0.0067555, cumulative = -0.0576914
Min/max rho:1.16833 1.17104
DILUPBiCGStab:  Solving for epsilon, Initial residual = 0.0155009, Final residual = 7.76672e-05, No Iterations 1
DILUPBiCGStab:  Solving for k, Initial residual = 0.0424482, Final residual = 0.000256876, No Iterations 1

Solving for fluid region porous
DILUPBiCGStab:  Solving for Ux, Initial residual = 0.0636284, Final residual = 0.000600473, No Iterations 1
DILUPBiCGStab:  Solving for Uy, Initial residual = 0.0852749, Final residual = 0.000797326, No Iterations 1
DILUPBiCGStab:  Solving for Uz, Initial residual = 0.0652981, Final residual = 0.00104816, No Iterations 1
DILUPBiCGStab:  Solving for h, Initial residual = 0.0551901, Final residual = 0.000368556, No Iterations 1
Min/max T:349.867 400
GAMG:  Solving for p_rgh, Initial residual = 0.00453937, Final residual = 4.0978e-05, No Iterations 4
time step continuity errors : sum local = 0.000269543, global = 4.42306e-05, cumulative = -0.0576472
Min/max rho:1000 1000
ExecutionTime = 135.62 s  ClockTime = 138 s

Time = 7


Solving for fluid region air
DILUPBiCGStab:  Solving for Ux, Initial residual = 0.0224475, Final residual = 9.29544e-05, No Iterations 1
DILUPBiCGStab:  Solving for Uy, Initial residual = 0.0222149, Final residual = 9.21364e-05, No Iterations 1
DILUPBiCGStab:  Solving for Uz, Initial residual = 0.0609618, Final residual = 0.000207326, No Iterations 1
DILUPBiCGStab:  Solving for h, Initial residual = 0.0448894, Final residual = 0.000197475, No Iterations 1
Min/max T:299.953 300.705
GAMG:  Solving for p_rgh, Initial residual = 0.267042, Final residual = 0.00197158, No Iterations 9
time step continuity errors : sum local = 0.014406, global = -0.00409098, cumulative = -0.0617381
Min/max rho:1.16792 1.17101
DILUPBiCGStab:  Solving for epsilon, Initial residual = 0.0127725, Final residual = 7.16594e-05, No Iterations 1
DILUPBiCGStab:  Solving for k, Initial residual = 0.0374179, Final residual = 0.000209874, No Iterations 1

Solving for fluid region porous
DILUPBiCGStab:  Solving for Ux, Initial residual = 0.0527843, Final residual = 0.000485167, No Iterations 1
DILUPBiCGStab:  Solving for Uy, Initial residual = 0.0747249, Final residual = 0.000636724, No Iterations 1
DILUPBiCGStab:  Solving for Uz, Initial residual = 0.0557308, Final residual = 0.000894721, No Iterations 1
DILUPBiCGStab:  Solving for h, Initial residual = 0.0470167, Final residual = 0.000278249, No Iterations 1
Min/max T:349.837 400
GAMG:  Solving for p_rgh, Initial residual = 0.00392808, Final residual = 2.67306e-05, No Iterations 7
time step continuity errors : sum local = 0.000176497, global = -8.31973e-05, cumulative = -0.0618213
Min/max rho:1000 1000
ExecutionTime = 138.36 s  ClockTime = 141 s

Time = 8


Solving for fluid region air
DILUPBiCGStab:  Solving for Ux, Initial residual = 0.0108179, Final residual = 4.63306e-05, No Iterations 1
DILUPBiCGStab:  Solving for Uy, Initial residual = 0.0115575, Final residual = 4.81187e-05, No Iterations 1
DILUPBiCGStab:  Solving for Uz, Initial residual = 0.0198686, Final residual = 8.36671e-05, No Iterations 1
DILUPBiCGStab:  Solving for h, Initial residual = 0.0387856, Final residual = 0.000167646, No Iterations 1
Min/max T:299.958 300.807
GAMG:  Solving for p_rgh, Initial residual = 0.223617, Final residual = 0.00199448, No Iterations 9
time step continuity errors : sum local = 0.0104517, global = -0.00279875, cumulative = -0.0646201
Min/max rho:1.1675 1.17099
DILUPBiCGStab:  Solving for epsilon, Initial residual = 0.0101741, Final residual = 6.60878e-05, No Iterations 1
DILUPBiCGStab:  Solving for k, Initial residual = 0.0329085, Final residual = 0.000191808, No Iterations 1

Solving for fluid region porous
DILUPBiCGStab:  Solving for Ux, Initial residual = 0.0442205, Final residual = 0.000388992, No Iterations 1
DILUPBiCGStab:  Solving for Uy, Initial residual = 0.0649312, Final residual = 0.00051783, No Iterations 1
DILUPBiCGStab:  Solving for Uz, Initial residual = 0.0469416, Final residual = 0.000750254, No Iterations 1
DILUPBiCGStab:  Solving for h, Initial residual = 0.041056, Final residual = 0.000217582, No Iterations 1
Min/max T:349.806 400
GAMG:  Solving for p_rgh, Initial residual = 0.00405625, Final residual = 1.12279e-05, No Iterations 8
time step continuity errors : sum local = 7.11844e-05, global = 1.14442e-05, cumulative = -0.0646086
Min/max rho:1000 1000
ExecutionTime = 141.18 s  ClockTime = 144 s

Time = 9


Solving for fluid region air
DILUPBiCGStab:  Solving for Ux, Initial residual = 0.00750808, Final residual = 4.10465e-05, No Iterations 1
DILUPBiCGStab:  Solving for Uy, Initial residual = 0.00813713, Final residual = 4.29502e-05, No Iterations 1
DILUPBiCGStab:  Solving for Uz, Initial residual = 0.013544, Final residual = 5.99467e-05, No Iterations 1
DILUPBiCGStab:  Solving for h, Initial residual = 0.0341951, Final residual = 0.000145889, No Iterations 1
Min/max T:299.962 300.913
GAMG:  Solving for p_rgh, Initial residual = 0.152861, Final residual = 0.0015152, No Iterations 6
time step continuity errors : sum local = 0.00682141, global = 0.00191132, cumulative = -0.0626973
Min/max rho:1.16706 1.17097
DILUPBiCGStab:  Solving for epsilon, Initial residual = 0.00893065, Final residual = 6.23482e-05, No Iterations 1
DILUPBiCGStab:  Solving for k, Initial residual = 0.0293356, Final residual = 0.000186879, No Iterations 1

Solving for fluid region porous
DILUPBiCGStab:  Solving for Ux, Initial residual = 0.0372573, Final residual = 0.000313646, No Iterations 1
DILUPBiCGStab:  Solving for Uy, Initial residual = 0.0564818, Final residual = 0.000427328, No Iterations 1
DILUPBiCGStab:  Solving for Uz, Initial residual = 0.0389745, Final residual = 0.000619408, No Iterations 1
DILUPBiCGStab:  Solving for h, Initial residual = 0.0365592, Final residual = 0.000173477, No Iterations 1
Min/max T:349.774 400
GAMG:  Solving for p_rgh, Initial residual = 0.00353963, Final residual = 3.36163e-05, No Iterations 7
time step continuity errors : sum local = 0.000198686, global = -9.24197e-05, cumulative = -0.0627897
Min/max rho:1000 1000
ExecutionTime = 143.89 s  ClockTime = 147 s

Time = 10


Solving for fluid region air
DILUPBiCGStab:  Solving for Ux, Initial residual = 0.00591759, Final residual = 3.2787e-05, No Iterations 1
DILUPBiCGStab:  Solving for Uy, Initial residual = 0.00631168, Final residual = 3.42969e-05, No Iterations 1
DILUPBiCGStab:  Solving for Uz, Initial residual = 0.0102677, Final residual = 4.73642e-05, No Iterations 1
DILUPBiCGStab:  Solving for h, Initial residual = 0.0306041, Final residual = 0.000129071, No Iterations 1
Min/max T:299.966 301.022
GAMG:  Solving for p_rgh, Initial residual = 0.12609, Final residual = 0.00121875, No Iterations 9
time step continuity errors : sum local = 0.00512495, global = -0.000610604, cumulative = -0.0634004
Min/max rho:1.16661 1.17095
DILUPBiCGStab:  Solving for epsilon, Initial residual = 0.00856281, Final residual = 5.78621e-05, No Iterations 1
DILUPBiCGStab:  Solving for k, Initial residual = 0.0268298, Final residual = 0.000163782, No Iterations 1

Solving for fluid region porous
DILUPBiCGStab:  Solving for Ux, Initial residual = 0.0320171, Final residual = 0.000258184, No Iterations 1
DILUPBiCGStab:  Solving for Uy, Initial residual = 0.0499583, Final residual = 0.000359853, No Iterations 1
DILUPBiCGStab:  Solving for Uz, Initial residual = 0.0329608, Final residual = 0.000518194, No Iterations 1
DILUPBiCGStab:  Solving for h, Initial residual = 0.0330083, Final residual = 0.000143611, No Iterations 1
Min/max T:349.74 400
GAMG:  Solving for p_rgh, Initial residual = 0.00291774, Final residual = 2.22368e-05, No Iterations 7
time step continuity errors : sum local = 0.000123702, global = -5.72935e-05, cumulative = -0.0634576
Min/max rho:1000 1000
ExecutionTime = 146.56 s  ClockTime = 150 s

Time = 11


Solving for fluid region air
DILUPBiCGStab:  Solving for Ux, Initial residual = 0.00563731, Final residual = 2.89866e-05, No Iterations 1
DILUPBiCGStab:  Solving for Uy, Initial residual = 0.00603745, Final residual = 3.00276e-05, No Iterations 1
DILUPBiCGStab:  Solving for Uz, Initial residual = 0.00756563, Final residual = 3.89472e-05, No Iterations 1
DILUPBiCGStab:  Solving for h, Initial residual = 0.0277218, Final residual = 0.000115714, No Iterations 1
Min/max T:299.969 301.133
GAMG:  Solving for p_rgh, Initial residual = 0.0853418, Final residual = 0.000613444, No Iterations 7
time step continuity errors : sum local = 0.00248756, global = -0.00031937, cumulative = -0.063777
Min/max rho:1.16616 1.17094
DILUPBiCGStab:  Solving for epsilon, Initial residual = 0.00830365, Final residual = 5.41722e-05, No Iterations 1
DILUPBiCGStab:  Solving for k, Initial residual = 0.0250807, Final residual = 0.000144109, No Iterations 1

Solving for fluid region porous
DILUPBiCGStab:  Solving for Ux, Initial residual = 0.02798, Final residual = 0.000215793, No Iterations 1
DILUPBiCGStab:  Solving for Uy, Initial residual = 0.0449358, Final residual = 0.000309238, No Iterations 1
DILUPBiCGStab:  Solving for Uz, Initial residual = 0.0286797, Final residual = 0.00044326, No Iterations 1
DILUPBiCGStab:  Solving for h, Initial residual = 0.0301525, Final residual = 0.000120414, No Iterations 1
Min/max T:349.706 400
GAMG:  Solving for p_rgh, Initial residual = 0.0024796, Final residual = 1.95023e-05, No Iterations 7
time step continuity errors : sum local = 0.000104016, global = -4.86625e-05, cumulative = -0.0638257
Min/max rho:1000 1000
ExecutionTime = 149.17 s  ClockTime = 152 s

Time = 12


Solving for fluid region air
DILUPBiCGStab:  Solving for Ux, Initial residual = 0.00567469, Final residual = 2.70043e-05, No Iterations 1
DILUPBiCGStab:  Solving for Uy, Initial residual = 0.00612953, Final residual = 2.80973e-05, No Iterations 1
DILUPBiCGStab:  Solving for Uz, Initial residual = 0.00802015, Final residual = 3.93282e-05, No Iterations 1
DILUPBiCGStab:  Solving for h, Initial residual = 0.0253613, Final residual = 0.000104908, No Iterations 1
Min/max T:299.972 301.249
GAMG:  Solving for p_rgh, Initial residual = 0.0692974, Final residual = 0.000497489, No Iterations 8
time step continuity errors : sum local = 0.00196379, global = 0.000304134, cumulative = -0.0635215
Min/max rho:1.16569 1.17093
DILUPBiCGStab:  Solving for epsilon, Initial residual = 0.0080608, Final residual = 5.11214e-05, No Iterations 1
DILUPBiCGStab:  Solving for k, Initial residual = 0.0237655, Final residual = 0.000129208, No Iterations 1

Solving for fluid region porous
DILUPBiCGStab:  Solving for Ux, Initial residual = 0.0249683, Final residual = 0.000181722, No Iterations 1
DILUPBiCGStab:  Solving for Uy, Initial residual = 0.0408923, Final residual = 0.000271015, No Iterations 1
DILUPBiCGStab:  Solving for Uz, Initial residual = 0.0253978, Final residual = 0.000384259, No Iterations 1
DILUPBiCGStab:  Solving for h, Initial residual = 0.0278233, Final residual = 0.000102929, No Iterations 1
Min/max T:349.671 400
GAMG:  Solving for p_rgh, Initial residual = 0.00225909, Final residual = 2.01095e-05, No Iterations 7
time step continuity errors : sum local = 0.000103581, global = -4.86594e-05, cumulative = -0.0635702
Min/max rho:1000 1000
ExecutionTime = 152.07 s  ClockTime = 155 s

Time = 13


Solving for fluid region air
DILUPBiCGStab:  Solving for Ux, Initial residual = 0.00528057, Final residual = 2.55741e-05, No Iterations 1
DILUPBiCGStab:  Solving for Uy, Initial residual = 0.00578944, Final residual = 2.68596e-05, No Iterations 1
DILUPBiCGStab:  Solving for Uz, Initial residual = 0.00655655, Final residual = 3.2706e-05, No Iterations 1
DILUPBiCGStab:  Solving for h, Initial residual = 0.0233947, Final residual = 9.60497e-05, No Iterations 1
Min/max T:299.974 301.369
GAMG:  Solving for p_rgh, Initial residual = 0.0609894, Final residual = 0.000403184, No Iterations 8
time step continuity errors : sum local = 0.00150952, global = 0.000246544, cumulative = -0.0633237
Min/max rho:1.1652 1.17092
DILUPBiCGStab:  Solving for epsilon, Initial residual = 0.00790801, Final residual = 4.91182e-05, No Iterations 1
DILUPBiCGStab:  Solving for k, Initial residual = 0.0226787, Final residual = 0.000117691, No Iterations 1

Solving for fluid region porous
DILUPBiCGStab:  Solving for Ux, Initial residual = 0.0224963, Final residual = 0.000154902, No Iterations 1
DILUPBiCGStab:  Solving for Uy, Initial residual = 0.0374548, Final residual = 0.000241237, No Iterations 1
DILUPBiCGStab:  Solving for Uz, Initial residual = 0.0226746, Final residual = 0.000335054, No Iterations 1
DILUPBiCGStab:  Solving for h, Initial residual = 0.0258643, Final residual = 8.98496e-05, No Iterations 1
Min/max T:349.635 400
GAMG:  Solving for p_rgh, Initial residual = 0.00211164, Final residual = 1.93202e-05, No Iterations 7
time step continuity errors : sum local = 9.61454e-05, global = -4.52347e-05, cumulative = -0.0633689
Min/max rho:1000 1000
ExecutionTime = 154.83 s  ClockTime = 158 s

Time = 14


Solving for fluid region air
DILUPBiCGStab:  Solving for Ux, Initial residual = 0.00492075, Final residual = 2.4253e-05, No Iterations 1
DILUPBiCGStab:  Solving for Uy, Initial residual = 0.00543889, Final residual = 2.5592e-05, No Iterations 1
DILUPBiCGStab:  Solving for Uz, Initial residual = 0.00582327, Final residual = 2.89022e-05, No Iterations 1
DILUPBiCGStab:  Solving for h, Initial residual = 0.0217341, Final residual = 8.86818e-05, No Iterations 1
Min/max T:299.976 301.494
GAMG:  Solving for p_rgh, Initial residual = 0.0509809, Final residual = 0.000244917, No Iterations 3
time step continuity errors : sum local = 0.000878165, global = -0.000125767, cumulative = -0.0634947
Min/max rho:1.16468 1.17091
DILUPBiCGStab:  Solving for epsilon, Initial residual = 0.00788536, Final residual = 4.78021e-05, No Iterations 1
DILUPBiCGStab:  Solving for k, Initial residual = 0.0217154, Final residual = 0.000108436, No Iterations 1

Solving for fluid region porous
DILUPBiCGStab:  Solving for Ux, Initial residual = 0.0204185, Final residual = 0.000137968, No Iterations 1
DILUPBiCGStab:  Solving for Uy, Initial residual = 0.0345112, Final residual = 0.000216472, No Iterations 1
DILUPBiCGStab:  Solving for Uz, Initial residual = 0.020382, Final residual = 0.000293696, No Iterations 1
DILUPBiCGStab:  Solving for h, Initial residual = 0.0242007, Final residual = 7.89577e-05, No Iterations 1
Min/max T:349.6 400
GAMG:  Solving for p_rgh, Initial residual = 0.00193406, Final residual = 1.72395e-05, No Iterations 7
time step continuity errors : sum local = 8.30126e-05, global = -3.90946e-05, cumulative = -0.0635338
Min/max rho:1000 1000
ExecutionTime = 157.3 s  ClockTime = 161 s

Time = 15


Solving for fluid region air
DILUPBiCGStab:  Solving for Ux, Initial residual = 0.00474352, Final residual = 2.31651e-05, No Iterations 1
DILUPBiCGStab:  Solving for Uy, Initial residual = 0.00524316, Final residual = 2.44322e-05, No Iterations 1
DILUPBiCGStab:  Solving for Uz, Initial residual = 0.00559063, Final residual = 2.72625e-05, No Iterations 1
DILUPBiCGStab:  Solving for h, Initial residual = 0.020313, Final residual = 8.24414e-05, No Iterations 1
Min/max T:299.976 301.625
GAMG:  Solving for p_rgh, Initial residual = 0.0439504, Final residual = 0.000359218, No Iterations 5
time step continuity errors : sum local = 0.00125201, global = -0.000168604, cumulative = -0.0637024
Min/max rho:1.16415 1.17091
DILUPBiCGStab:  Solving for epsilon, Initial residual = 0.00792794, Final residual = 4.67914e-05, No Iterations 1
DILUPBiCGStab:  Solving for k, Initial residual = 0.0208407, Final residual = 0.000100718, No Iterations 1

Solving for fluid region porous
DILUPBiCGStab:  Solving for Ux, Initial residual = 0.0186589, Final residual = 0.000123561, No Iterations 1
DILUPBiCGStab:  Solving for Uy, Initial residual = 0.0319776, Final residual = 0.000195597, No Iterations 1
DILUPBiCGStab:  Solving for Uz, Initial residual = 0.0184709, Final residual = 0.00025847, No Iterations 1
DILUPBiCGStab:  Solving for h, Initial residual = 0.0227817, Final residual = 7.04844e-05, No Iterations 1
Min/max T:349.564 400
GAMG:  Solving for p_rgh, Initial residual = 0.00176437, Final residual = 1.53401e-05, No Iterations 7
time step continuity errors : sum local = 7.17227e-05, global = -3.3756e-05, cumulative = -0.0637361
Min/max rho:1000 1000
ExecutionTime = 159.84 s  ClockTime = 163 s

Time = 16


Solving for fluid region air
DILUPBiCGStab:  Solving for Ux, Initial residual = 0.00462871, Final residual = 2.22148e-05, No Iterations 1
DILUPBiCGStab:  Solving for Uy, Initial residual = 0.00511041, Final residual = 2.34081e-05, No Iterations 1
DILUPBiCGStab:  Solving for Uz, Initial residual = 0.00546367, Final residual = 2.604e-05, No Iterations 1
DILUPBiCGStab:  Solving for h, Initial residual = 0.0190836, Final residual = 7.70922e-05, No Iterations 1
Min/max T:299.976 301.762
GAMG:  Solving for p_rgh, Initial residual = 0.0391363, Final residual = 0.000316336, No Iterations 4
time step continuity errors : sum local = 0.0010794, global = 0.000222563, cumulative = -0.0635136
Min/max rho:1.16359 1.17091
DILUPBiCGStab:  Solving for epsilon, Initial residual = 0.00791945, Final residual = 4.60381e-05, No Iterations 1
DILUPBiCGStab:  Solving for k, Initial residual = 0.0201546, Final residual = 9.4721e-05, No Iterations 1

Solving for fluid region porous
DILUPBiCGStab:  Solving for Ux, Initial residual = 0.0171515, Final residual = 0.000111064, No Iterations 1
DILUPBiCGStab:  Solving for Uy, Initial residual = 0.0297855, Final residual = 0.000177878, No Iterations 1
DILUPBiCGStab:  Solving for Uz, Initial residual = 0.0168714, Final residual = 0.000228218, No Iterations 1
DILUPBiCGStab:  Solving for h, Initial residual = 0.0215482, Final residual = 6.38502e-05, No Iterations 1
Min/max T:349.529 400
GAMG:  Solving for p_rgh, Initial residual = 0.00162599, Final residual = 1.40811e-05, No Iterations 7
time step continuity errors : sum local = 6.41128e-05, global = -3.01857e-05, cumulative = -0.0635437
Min/max rho:1000 1000
ExecutionTime = 162.46 s  ClockTime = 166 s

Time = 17


Solving for fluid region air
DILUPBiCGStab:  Solving for Ux, Initial residual = 0.00451523, Final residual = 2.1393e-05, No Iterations 1
DILUPBiCGStab:  Solving for Uy, Initial residual = 0.00499124, Final residual = 2.25593e-05, No Iterations 1
DILUPBiCGStab:  Solving for Uz, Initial residual = 0.00532039, Final residual = 2.47351e-05, No Iterations 1
DILUPBiCGStab:  Solving for h, Initial residual = 0.0180101, Final residual = 7.24641e-05, No Iterations 1
Min/max T:299.976 301.903
GAMG:  Solving for p_rgh, Initial residual = 0.0359158, Final residual = 0.000248694, No Iterations 3
time step continuity errors : sum local = 0.000832254, global = -0.00010569, cumulative = -0.0636494
Min/max rho:1.16301 1.17091
DILUPBiCGStab:  Solving for epsilon, Initial residual = 0.00786443, Final residual = 4.53317e-05, No Iterations 1
DILUPBiCGStab:  Solving for k, Initial residual = 0.0194913, Final residual = 8.9477e-05, No Iterations 1

Solving for fluid region porous
DILUPBiCGStab:  Solving for Ux, Initial residual = 0.0158442, Final residual = 0.000100193, No Iterations 1
DILUPBiCGStab:  Solving for Uy, Initial residual = 0.0278655, Final residual = 0.000163151, No Iterations 1
DILUPBiCGStab:  Solving for Uz, Initial residual = 0.0155089, Final residual = 0.000201985, No Iterations 1
DILUPBiCGStab:  Solving for h, Initial residual = 0.0204689, Final residual = 5.82184e-05, No Iterations 1
Min/max T:349.493 400
GAMG:  Solving for p_rgh, Initial residual = 0.00154651, Final residual = 1.30951e-05, No Iterations 7
time step continuity errors : sum local = 5.82219e-05, global = -2.74135e-05, cumulative = -0.0636768
Min/max rho:1000 1000
ExecutionTime = 164.95 s  ClockTime = 169 s

Time = 18


Solving for fluid region air
DILUPBiCGStab:  Solving for Ux, Initial residual = 0.00439708, Final residual = 2.06568e-05, No Iterations 1
DILUPBiCGStab:  Solving for Uy, Initial residual = 0.00487323, Final residual = 2.18129e-05, No Iterations 1
DILUPBiCGStab:  Solving for Uz, Initial residual = 0.00513591, Final residual = 2.34451e-05, No Iterations 1
DILUPBiCGStab:  Solving for h, Initial residual = 0.0170659, Final residual = 6.84169e-05, No Iterations 1
Min/max T:299.976 302.052
GAMG:  Solving for p_rgh, Initial residual = 0.0330862, Final residual = 0.000325683, No Iterations 4
time step continuity errors : sum local = 0.00106889, global = 0.000274386, cumulative = -0.0634025
Min/max rho:1.16241 1.17091
DILUPBiCGStab:  Solving for epsilon, Initial residual = 0.00775473, Final residual = 4.44039e-05, No Iterations 1
DILUPBiCGStab:  Solving for k, Initial residual = 0.0188216, Final residual = 8.36124e-05, No Iterations 1

Solving for fluid region porous
DILUPBiCGStab:  Solving for Ux, Initial residual = 0.0146974, Final residual = 9.07082e-05, No Iterations 1
DILUPBiCGStab:  Solving for Uy, Initial residual = 0.0261674, Final residual = 0.000150496, No Iterations 1
DILUPBiCGStab:  Solving for Uz, Initial residual = 0.0143303, Final residual = 0.000179114, No Iterations 1
DILUPBiCGStab:  Solving for h, Initial residual = 0.0195194, Final residual = 5.37773e-05, No Iterations 1
Min/max T:349.457 400
GAMG:  Solving for p_rgh, Initial residual = 0.00147271, Final residual = 1.21441e-05, No Iterations 7
time step continuity errors : sum local = 5.2831e-05, global = -2.48597e-05, cumulative = -0.0634273
Min/max rho:1000 1000
ExecutionTime = 167.45 s  ClockTime = 171 s

Time = 19


Solving for fluid region air
DILUPBiCGStab:  Solving for Ux, Initial residual = 0.00427143, Final residual = 1.99317e-05, No Iterations 1
DILUPBiCGStab:  Solving for Uy, Initial residual = 0.00474695, Final residual = 2.10775e-05, No Iterations 1
DILUPBiCGStab:  Solving for Uz, Initial residual = 0.00495943, Final residual = 2.21945e-05, No Iterations 1
DILUPBiCGStab:  Solving for h, Initial residual = 0.0162301, Final residual = 6.48504e-05, No Iterations 1
Min/max T:299.976 302.204
GAMG:  Solving for p_rgh, Initial residual = 0.0305385, Final residual = 0.000267274, No Iterations 4
time step continuity errors : sum local = 0.000862033, global = 0.000233228, cumulative = -0.0631941
Min/max rho:1.16179 1.17091
DILUPBiCGStab:  Solving for epsilon, Initial residual = 0.00764565, Final residual = 4.3384e-05, No Iterations 1
DILUPBiCGStab:  Solving for k, Initial residual = 0.0181766, Final residual = 7.85659e-05, No Iterations 1

Solving for fluid region porous
DILUPBiCGStab:  Solving for Ux, Initial residual = 0.0136835, Final residual = 8.26805e-05, No Iterations 1
DILUPBiCGStab:  Solving for Uy, Initial residual = 0.0246544, Final residual = 0.000139338, No Iterations 1
DILUPBiCGStab:  Solving for Uz, Initial residual = 0.0133022, Final residual = 0.000159559, No Iterations 1
DILUPBiCGStab:  Solving for h, Initial residual = 0.0186759, Final residual = 5.01593e-05, No Iterations 1
Min/max T:349.422 400
GAMG:  Solving for p_rgh, Initial residual = 0.00139486, Final residual = 1.12169e-05, No Iterations 7
time step continuity errors : sum local = 4.78164e-05, global = -2.247e-05, cumulative = -0.0632166
Min/max rho:1000 1000
ExecutionTime = 169.99 s  ClockTime = 174 s

Time = 20


Solving for fluid region air
DILUPBiCGStab:  Solving for Ux, Initial residual = 0.00416084, Final residual = 1.92746e-05, No Iterations 1
DILUPBiCGStab:  Solving for Uy, Initial residual = 0.00462964, Final residual = 2.03881e-05, No Iterations 1
DILUPBiCGStab:  Solving for Uz, Initial residual = 0.0048142, Final residual = 2.11395e-05, No Iterations 1
DILUPBiCGStab:  Solving for h, Initial residual = 0.0154847, Final residual = 6.16772e-05, No Iterations 1
Min/max T:299.976 302.36
GAMG:  Solving for p_rgh, Initial residual = 0.0282999, Final residual = 0.000258872, No Iterations 3
time step continuity errors : sum local = 0.000821836, global = -0.000117444, cumulative = -0.063334
Min/max rho:1.16115 1.17091
DILUPBiCGStab:  Solving for epsilon, Initial residual = 0.00756969, Final residual = 4.24852e-05, No Iterations 1
DILUPBiCGStab:  Solving for k, Initial residual = 0.0175541, Final residual = 7.42857e-05, No Iterations 1

Solving for fluid region porous
DILUPBiCGStab:  Solving for Ux, Initial residual = 0.0128006, Final residual = 7.57996e-05, No Iterations 1
DILUPBiCGStab:  Solving for Uy, Initial residual = 0.0232991, Final residual = 0.00012948, No Iterations 1
DILUPBiCGStab:  Solving for Uz, Initial residual = 0.0124003, Final residual = 0.000143425, No Iterations 1
DILUPBiCGStab:  Solving for h, Initial residual = 0.0179257, Final residual = 4.68886e-05, No Iterations 1
Min/max T:349.386 400
GAMG:  Solving for p_rgh, Initial residual = 0.00131658, Final residual = 1.04013e-05, No Iterations 7
time step continuity errors : sum local = 4.34994e-05, global = -2.03801e-05, cumulative = -0.0633544
Min/max rho:1000 1000
ExecutionTime = 172.34 s  ClockTime = 176 s

Time = 21


Solving for fluid region air
DILUPBiCGStab:  Solving for Ux, Initial residual = 0.00406848, Final residual = 1.8694e-05, No Iterations 1
DILUPBiCGStab:  Solving for Uy, Initial residual = 0.00452869, Final residual = 1.97647e-05, No Iterations 1
DILUPBiCGStab:  Solving for Uz, Initial residual = 0.00469112, Final residual = 2.023e-05, No Iterations 1
DILUPBiCGStab:  Solving for h, Initial residual = 0.014816, Final residual = 5.88246e-05, No Iterations 1
Min/max T:299.976 302.517
GAMG:  Solving for p_rgh, Initial residual = 0.0263052, Final residual = 0.000166428, No Iterations 3
time step continuity errors : sum local = 0.000521042, global = -7.79452e-05, cumulative = -0.0634323
Min/max rho:1.16052 1.17091
DILUPBiCGStab:  Solving for epsilon, Initial residual = 0.007466, Final residual = 4.15857e-05, No Iterations 1
DILUPBiCGStab:  Solving for k, Initial residual = 0.0169687, Final residual = 7.05973e-05, No Iterations 1

Solving for fluid region porous
DILUPBiCGStab:  Solving for Ux, Initial residual = 0.0120922, Final residual = 6.97101e-05, No Iterations 1
DILUPBiCGStab:  Solving for Uy, Initial residual = 0.0220785, Final residual = 0.000120678, No Iterations 1
DILUPBiCGStab:  Solving for Uz, Initial residual = 0.0116038, Final residual = 0.000130041, No Iterations 1
DILUPBiCGStab:  Solving for h, Initial residual = 0.0172524, Final residual = 4.42178e-05, No Iterations 1
Min/max T:349.351 400
GAMG:  Solving for p_rgh, Initial residual = 0.00124049, Final residual = 9.66458e-06, No Iterations 7
time step continuity errors : sum local = 3.97143e-05, global = -1.85979e-05, cumulative = -0.0634509
Min/max rho:1000 1000
ExecutionTime = 174.68 s  ClockTime = 179 s

Time = 22


Solving for fluid region air
DILUPBiCGStab:  Solving for Ux, Initial residual = 0.00398313, Final residual = 1.81455e-05, No Iterations 1
DILUPBiCGStab:  Solving for Uy, Initial residual = 0.00443662, Final residual = 1.91805e-05, No Iterations 1
DILUPBiCGStab:  Solving for Uz, Initial residual = 0.00458119, Final residual = 1.93755e-05, No Iterations 1
DILUPBiCGStab:  Solving for h, Initial residual = 0.0142128, Final residual = 5.62411e-05, No Iterations 1
Min/max T:299.976 302.676
GAMG:  Solving for p_rgh, Initial residual = 0.0245256, Final residual = 0.000155617, No Iterations 3
time step continuity errors : sum local = 0.000481537, global = -6.85018e-05, cumulative = -0.0635194
Min/max rho:1.15987 1.17091
DILUPBiCGStab:  Solving for epsilon, Initial residual = 0.00732705, Final residual = 4.06206e-05, No Iterations 1
DILUPBiCGStab:  Solving for k, Initial residual = 0.0164568, Final residual = 6.74155e-05, No Iterations 1

Solving for fluid region porous
DILUPBiCGStab:  Solving for Ux, Initial residual = 0.0114521, Final residual = 6.42881e-05, No Iterations 1
DILUPBiCGStab:  Solving for Uy, Initial residual = 0.0209734, Final residual = 0.000113008, No Iterations 1
DILUPBiCGStab:  Solving for Uz, Initial residual = 0.0108957, Final residual = 0.000118231, No Iterations 1
DILUPBiCGStab:  Solving for h, Initial residual = 0.0166435, Final residual = 4.18774e-05, No Iterations 1
Min/max T:349.316 400
GAMG:  Solving for p_rgh, Initial residual = 0.00116772, Final residual = 9.0009e-06, No Iterations 7
time step continuity errors : sum local = 3.64075e-05, global = -1.69466e-05, cumulative = -0.0635364
Min/max rho:1000 1000
ExecutionTime = 177.02 s  ClockTime = 181 s

Time = 23


Solving for fluid region air
DILUPBiCGStab:  Solving for Ux, Initial residual = 0.00390579, Final residual = 1.76346e-05, No Iterations 1
DILUPBiCGStab:  Solving for Uy, Initial residual = 0.00435414, Final residual = 1.86398e-05, No Iterations 1
DILUPBiCGStab:  Solving for Uz, Initial residual = 0.00447644, Final residual = 1.85956e-05, No Iterations 1
DILUPBiCGStab:  Solving for h, Initial residual = 0.013666, Final residual = 5.38873e-05, No Iterations 1
Min/max T:299.976 302.837
GAMG:  Solving for p_rgh, Initial residual = 0.0229812, Final residual = 0.000191148, No Iterations 3
time step continuity errors : sum local = 0.000585297, global = -8.37433e-05, cumulative = -0.0636201
Min/max rho:1.15922 1.17091
DILUPBiCGStab:  Solving for epsilon, Initial residual = 0.00716078, Final residual = 3.96175e-05, No Iterations 1
DILUPBiCGStab:  Solving for k, Initial residual = 0.0159533, Final residual = 6.46199e-05, No Iterations 1

Solving for fluid region porous
DILUPBiCGStab:  Solving for Ux, Initial residual = 0.0108668, Final residual = 5.9455e-05, No Iterations 1
DILUPBiCGStab:  Solving for Uy, Initial residual = 0.019968, Final residual = 0.000106201, No Iterations 1
DILUPBiCGStab:  Solving for Uz, Initial residual = 0.0102622, Final residual = 0.000107595, No Iterations 1
DILUPBiCGStab:  Solving for h, Initial residual = 0.0160974, Final residual = 3.97747e-05, No Iterations 1
Min/max T:349.28 400
GAMG:  Solving for p_rgh, Initial residual = 0.00109854, Final residual = 8.39767e-06, No Iterations 7
time step continuity errors : sum local = 3.34339e-05, global = -1.55454e-05, cumulative = -0.0636357
Min/max rho:1000 1000
ExecutionTime = 179.35 s  ClockTime = 183 s

Time = 24


Solving for fluid region air
DILUPBiCGStab:  Solving for Ux, Initial residual = 0.00383444, Final residual = 1.71596e-05, No Iterations 1
DILUPBiCGStab:  Solving for Uy, Initial residual = 0.0042778, Final residual = 1.81379e-05, No Iterations 1
DILUPBiCGStab:  Solving for Uz, Initial residual = 0.00437718, Final residual = 1.78875e-05, No Iterations 1
DILUPBiCGStab:  Solving for h, Initial residual = 0.0131686, Final residual = 5.17324e-05, No Iterations 1
Min/max T:299.975 303.002
GAMG:  Solving for p_rgh, Initial residual = 0.0217146, Final residual = 0.000133971, No Iterations 4
time step continuity errors : sum local = 0.000406184, global = 8.9736e-05, cumulative = -0.0635459
Min/max rho:1.15855 1.17091
DILUPBiCGStab:  Solving for epsilon, Initial residual = 0.00699697, Final residual = 3.85548e-05, No Iterations 1
DILUPBiCGStab:  Solving for k, Initial residual = 0.015462, Final residual = 6.20147e-05, No Iterations 1

Solving for fluid region porous
DILUPBiCGStab:  Solving for Ux, Initial residual = 0.0103281, Final residual = 5.51992e-05, No Iterations 1
DILUPBiCGStab:  Solving for Uy, Initial residual = 0.0190496, Final residual = 0.000100032, No Iterations 1
DILUPBiCGStab:  Solving for Uz, Initial residual = 0.00969235, Final residual = 9.81499e-05, No Iterations 1
DILUPBiCGStab:  Solving for h, Initial residual = 0.0155999, Final residual = 3.80027e-05, No Iterations 1
Min/max T:349.245 400
GAMG:  Solving for p_rgh, Initial residual = 0.00103377, Final residual = 7.83013e-06, No Iterations 7
time step continuity errors : sum local = 3.07258e-05, global = -1.42393e-05, cumulative = -0.0635602
Min/max rho:1000 1000
ExecutionTime = 181.79 s  ClockTime = 186 s

Time = 25


Solving for fluid region air
DILUPBiCGStab:  Solving for Ux, Initial residual = 0.00376471, Final residual = 1.67103e-05, No Iterations 1
DILUPBiCGStab:  Solving for Uy, Initial residual = 0.00420263, Final residual = 1.76608e-05, No Iterations 1
DILUPBiCGStab:  Solving for Uz, Initial residual = 0.0042862, Final residual = 1.72292e-05, No Iterations 1
DILUPBiCGStab:  Solving for h, Initial residual = 0.0127144, Final residual = 4.97453e-05, No Iterations 1
Min/max T:299.975 303.167
GAMG:  Solving for p_rgh, Initial residual = 0.0206357, Final residual = 0.000120485, No Iterations 4
time step continuity errors : sum local = 0.000361977, global = 8.79604e-05, cumulative = -0.0634722
Min/max rho:1.15788 1.17092
DILUPBiCGStab:  Solving for epsilon, Initial residual = 0.00685744, Final residual = 3.75678e-05, No Iterations 1
DILUPBiCGStab:  Solving for k, Initial residual = 0.0149896, Final residual = 5.95746e-05, No Iterations 1

Solving for fluid region porous
DILUPBiCGStab:  Solving for Ux, Initial residual = 0.00983189, Final residual = 5.15165e-05, No Iterations 1
DILUPBiCGStab:  Solving for Uy, Initial residual = 0.0182074, Final residual = 9.4345e-05, No Iterations 1
DILUPBiCGStab:  Solving for Uz, Initial residual = 0.00917737, Final residual = 8.97374e-05, No Iterations 1
DILUPBiCGStab:  Solving for h, Initial residual = 0.0151444, Final residual = 3.63089e-05, No Iterations 1
Min/max T:349.211 400
GAMG:  Solving for p_rgh, Initial residual = 0.000975147, Final residual = 7.31573e-06, No Iterations 7
time step continuity errors : sum local = 2.83374e-05, global = -1.30683e-05, cumulative = -0.0634853
Min/max rho:1000 1000
ExecutionTime = 184.34 s  ClockTime = 188 s

Time = 26


Solving for fluid region air
DILUPBiCGStab:  Solving for Ux, Initial residual = 0.00370055, Final residual = 1.62972e-05, No Iterations 1
DILUPBiCGStab:  Solving for Uy, Initial residual = 0.00413195, Final residual = 1.72151e-05, No Iterations 1
DILUPBiCGStab:  Solving for Uz, Initial residual = 0.00420149, Final residual = 1.66365e-05, No Iterations 1
DILUPBiCGStab:  Solving for h, Initial residual = 0.0122976, Final residual = 4.79026e-05, No Iterations 1
Min/max T:299.975 303.329
GAMG:  Solving for p_rgh, Initial residual = 0.0196862, Final residual = 0.000182727, No Iterations 3
time step continuity errors : sum local = 0.000544259, global = -7.14622e-05, cumulative = -0.0635567
Min/max rho:1.15722 1.17092
DILUPBiCGStab:  Solving for epsilon, Initial residual = 0.00672932, Final residual = 3.67363e-05, No Iterations 1
DILUPBiCGStab:  Solving for k, Initial residual = 0.0145343, Final residual = 5.72379e-05, No Iterations 1

Solving for fluid region porous
DILUPBiCGStab:  Solving for Ux, Initial residual = 0.0093735, Final residual = 4.8308e-05, No Iterations 1
DILUPBiCGStab:  Solving for Uy, Initial residual = 0.0174325, Final residual = 8.91918e-05, No Iterations 1
DILUPBiCGStab:  Solving for Uz, Initial residual = 0.00870996, Final residual = 8.24792e-05, No Iterations 1
DILUPBiCGStab:  Solving for h, Initial residual = 0.014734, Final residual = 3.4869e-05, No Iterations 1
Min/max T:349.176 400
GAMG:  Solving for p_rgh, Initial residual = 0.00092819, Final residual = 6.85971e-06, No Iterations 7
time step continuity errors : sum local = 2.62409e-05, global = -1.20507e-05, cumulative = -0.0635688
Min/max rho:1000 1000
ExecutionTime = 186.65 s  ClockTime = 191 s

Time = 27


Solving for fluid region air
DILUPBiCGStab:  Solving for Ux, Initial residual = 0.00364147, Final residual = 1.59152e-05, No Iterations 1
DILUPBiCGStab:  Solving for Uy, Initial residual = 0.00406634, Final residual = 1.67994e-05, No Iterations 1
DILUPBiCGStab:  Solving for Uz, Initial residual = 0.00412163, Final residual = 1.6098e-05, No Iterations 1
DILUPBiCGStab:  Solving for h, Initial residual = 0.0119138, Final residual = 4.61856e-05, No Iterations 1
Min/max T:299.975 303.489
GAMG:  Solving for p_rgh, Initial residual = 0.0188183, Final residual = 0.000108486, No Iterations 4
time step continuity errors : sum local = 0.000320599, global = 6.72216e-05, cumulative = -0.0635016
Min/max rho:1.15658 1.17092
DILUPBiCGStab:  Solving for epsilon, Initial residual = 0.00658937, Final residual = 3.59566e-05, No Iterations 1
DILUPBiCGStab:  Solving for k, Initial residual = 0.0140974, Final residual = 5.49686e-05, No Iterations 1

Solving for fluid region porous
DILUPBiCGStab:  Solving for Ux, Initial residual = 0.00894291, Final residual = 4.53917e-05, No Iterations 1
DILUPBiCGStab:  Solving for Uy, Initial residual = 0.0167171, Final residual = 8.4571e-05, No Iterations 1
DILUPBiCGStab:  Solving for Uz, Initial residual = 0.00828396, Final residual = 7.63824e-05, No Iterations 1
DILUPBiCGStab:  Solving for h, Initial residual = 0.0143574, Final residual = 3.35753e-05, No Iterations 1
Min/max T:349.141 400
GAMG:  Solving for p_rgh, Initial residual = 0.000891046, Final residual = 6.43815e-06, No Iterations 7
time step continuity errors : sum local = 2.43304e-05, global = -1.11548e-05, cumulative = -0.0635127
Min/max rho:1000 1000
ExecutionTime = 189.31 s  ClockTime = 194 s

Time = 28


Solving for fluid region air
DILUPBiCGStab:  Solving for Ux, Initial residual = 0.00358196, Final residual = 1.55439e-05, No Iterations 1
DILUPBiCGStab:  Solving for Uy, Initial residual = 0.00400094, Final residual = 1.63969e-05, No Iterations 1
DILUPBiCGStab:  Solving for Uz, Initial residual = 0.00404847, Final residual = 1.55858e-05, No Iterations 1
DILUPBiCGStab:  Solving for h, Initial residual = 0.0115592, Final residual = 4.45813e-05, No Iterations 1
Min/max T:299.975 303.646
GAMG:  Solving for p_rgh, Initial residual = 0.0180164, Final residual = 0.000165378, No Iterations 3
time step continuity errors : sum local = 0.000485434, global = -6.61404e-05, cumulative = -0.0635789
Min/max rho:1.15594 1.17092
DILUPBiCGStab:  Solving for epsilon, Initial residual = 0.00643678, Final residual = 3.5241e-05, No Iterations 1
DILUPBiCGStab:  Solving for k, Initial residual = 0.0136865, Final residual = 5.27644e-05, No Iterations 1

Solving for fluid region porous
DILUPBiCGStab:  Solving for Ux, Initial residual = 0.00853134, Final residual = 4.26751e-05, No Iterations 1
DILUPBiCGStab:  Solving for Uy, Initial residual = 0.0160545, Final residual = 8.03583e-05, No Iterations 1
DILUPBiCGStab:  Solving for Uz, Initial residual = 0.00789425, Final residual = 7.08387e-05, No Iterations 1
DILUPBiCGStab:  Solving for h, Initial residual = 0.0140069, Final residual = 3.23269e-05, No Iterations 1
Min/max T:349.106 400
GAMG:  Solving for p_rgh, Initial residual = 0.000854836, Final residual = 6.05396e-06, No Iterations 7
time step continuity errors : sum local = 2.26375e-05, global = -1.03288e-05, cumulative = -0.0635892
Min/max rho:1000 1000
ExecutionTime = 191.59 s  ClockTime = 196 s

Time = 29


Solving for fluid region air
DILUPBiCGStab:  Solving for Ux, Initial residual = 0.00352821, Final residual = 1.51992e-05, No Iterations 1
DILUPBiCGStab:  Solving for Uy, Initial residual = 0.00394139, Final residual = 1.60234e-05, No Iterations 1
DILUPBiCGStab:  Solving for Uz, Initial residual = 0.00397719, Final residual = 1.51271e-05, No Iterations 1
DILUPBiCGStab:  Solving for h, Initial residual = 0.0112306, Final residual = 4.30783e-05, No Iterations 1
Min/max T:299.975 303.798
GAMG:  Solving for p_rgh, Initial residual = 0.0173045, Final residual = 9.90071e-05, No Iterations 4
time step continuity errors : sum local = 0.000288755, global = 6.26538e-05, cumulative = -0.0635265
Min/max rho:1.15533 1.17092
DILUPBiCGStab:  Solving for epsilon, Initial residual = 0.00627944, Final residual = 3.45282e-05, No Iterations 1
DILUPBiCGStab:  Solving for k, Initial residual = 0.0133089, Final residual = 5.07356e-05, No Iterations 1

Solving for fluid region porous
DILUPBiCGStab:  Solving for Ux, Initial residual = 0.00814265, Final residual = 4.01632e-05, No Iterations 1
DILUPBiCGStab:  Solving for Uy, Initial residual = 0.0154393, Final residual = 7.64787e-05, No Iterations 1
DILUPBiCGStab:  Solving for Uz, Initial residual = 0.00753651, Final residual = 6.5767e-05, No Iterations 1
DILUPBiCGStab:  Solving for h, Initial residual = 0.013692, Final residual = 3.12735e-05, No Iterations 1
Min/max T:349.072 400
GAMG:  Solving for p_rgh, Initial residual = 0.00081934, Final residual = 5.73505e-06, No Iterations 7
time step continuity errors : sum local = 2.12119e-05, global = -9.64342e-06, cumulative = -0.0635362
Min/max rho:1000 1000
ExecutionTime = 194.19 s  ClockTime = 199 s

Time = 30


Solving for fluid region air
DILUPBiCGStab:  Solving for Ux, Initial residual = 0.00347419, Final residual = 1.48667e-05, No Iterations 1
DILUPBiCGStab:  Solving for Uy, Initial residual = 0.00388177, Final residual = 1.56624e-05, No Iterations 1
DILUPBiCGStab:  Solving for Uz, Initial residual = 0.00391101, Final residual = 1.46994e-05, No Iterations 1
DILUPBiCGStab:  Solving for h, Initial residual = 0.0109256, Final residual = 4.16672e-05, No Iterations 1
Min/max T:299.975 303.946
GAMG:  Solving for p_rgh, Initial residual = 0.0167037, Final residual = 0.000156882, No Iterations 3
time step continuity errors : sum local = 0.000454891, global = -5.8823e-05, cumulative = -0.063595
Min/max rho:1.15473 1.17092
DILUPBiCGStab:  Solving for epsilon, Initial residual = 0.00612894, Final residual = 3.38184e-05, No Iterations 1
DILUPBiCGStab:  Solving for k, Initial residual = 0.0129478, Final residual = 4.89329e-05, No Iterations 1

Solving for fluid region porous
DILUPBiCGStab:  Solving for Ux, Initial residual = 0.00778048, Final residual = 3.78688e-05, No Iterations 1
DILUPBiCGStab:  Solving for Uy, Initial residual = 0.0148667, Final residual = 7.28629e-05, No Iterations 1
DILUPBiCGStab:  Solving for Uz, Initial residual = 0.00720706, Final residual = 6.11943e-05, No Iterations 1
DILUPBiCGStab:  Solving for h, Initial residual = 0.0134002, Final residual = 3.02735e-05, No Iterations 1
Min/max T:349.037 400
GAMG:  Solving for p_rgh, Initial residual = 0.000784745, Final residual = 5.44301e-06, No Iterations 7
time step continuity errors : sum local = 1.99299e-05, global = -9.02225e-06, cumulative = -0.063604
Min/max rho:1000 1000
ExecutionTime = 196.39 s  ClockTime = 201 s

Time = 31


Solving for fluid region air
DILUPBiCGStab:  Solving for Ux, Initial residual = 0.00342477, Final residual = 1.45591e-05, No Iterations 1
DILUPBiCGStab:  Solving for Uy, Initial residual = 0.00382662, Final residual = 1.53247e-05, No Iterations 1
DILUPBiCGStab:  Solving for Uz, Initial residual = 0.0038467, Final residual = 1.43214e-05, No Iterations 1
DILUPBiCGStab:  Solving for h, Initial residual = 0.0106416, Final residual = 4.03369e-05, No Iterations 1
Min/max T:299.974 304.09
GAMG:  Solving for p_rgh, Initial residual = 0.016223, Final residual = 9.51366e-05, No Iterations 4
time step continuity errors : sum local = 0.000274308, global = 6.10349e-05, cumulative = -0.063543
Min/max rho:1.15415 1.17092
DILUPBiCGStab:  Solving for epsilon, Initial residual = 0.00599433, Final residual = 3.31597e-05, No Iterations 1
DILUPBiCGStab:  Solving for k, Initial residual = 0.0126017, Final residual = 4.72902e-05, No Iterations 1

Solving for fluid region porous
DILUPBiCGStab:  Solving for Ux, Initial residual = 0.00744506, Final residual = 3.59033e-05, No Iterations 1
DILUPBiCGStab:  Solving for Uy, Initial residual = 0.0143322, Final residual = 6.95257e-05, No Iterations 1
DILUPBiCGStab:  Solving for Uz, Initial residual = 0.00690275, Final residual = 5.71087e-05, No Iterations 1
DILUPBiCGStab:  Solving for h, Initial residual = 0.0131288, Final residual = 2.93516e-05, No Iterations 1
Min/max T:349.003 400
GAMG:  Solving for p_rgh, Initial residual = 0.000751667, Final residual = 5.18794e-06, No Iterations 7
time step continuity errors : sum local = 1.88111e-05, global = -8.53103e-06, cumulative = -0.0635515
Min/max rho:1000 1000
ExecutionTime = 199.31 s  ClockTime = 204 s

Time = 32


Solving for fluid region air
DILUPBiCGStab:  Solving for Ux, Initial residual = 0.00337422, Final residual = 1.42587e-05, No Iterations 1
DILUPBiCGStab:  Solving for Uy, Initial residual = 0.00377033, Final residual = 1.49959e-05, No Iterations 1
DILUPBiCGStab:  Solving for Uz, Initial residual = 0.00378826, Final residual = 1.39652e-05, No Iterations 1
DILUPBiCGStab:  Solving for h, Initial residual = 0.0103763, Final residual = 3.908e-05, No Iterations 1
Min/max T:299.974 304.228
GAMG:  Solving for p_rgh, Initial residual = 0.0158308, Final residual = 0.000148984, No Iterations 3
time step continuity errors : sum local = 0.000427419, global = -5.52951e-05, cumulative = -0.0636068
Min/max rho:1.1536 1.17092
DILUPBiCGStab:  Solving for epsilon, Initial residual = 0.00586909, Final residual = 3.25811e-05, No Iterations 1
DILUPBiCGStab:  Solving for k, Initial residual = 0.0122667, Final residual = 4.57271e-05, No Iterations 1

Solving for fluid region porous
DILUPBiCGStab:  Solving for Ux, Initial residual = 0.00713219, Final residual = 3.41359e-05, No Iterations 1
DILUPBiCGStab:  Solving for Uy, Initial residual = 0.0138324, Final residual = 6.64815e-05, No Iterations 1
DILUPBiCGStab:  Solving for Uz, Initial residual = 0.00662088, Final residual = 5.34817e-05, No Iterations 1
DILUPBiCGStab:  Solving for h, Initial residual = 0.0128819, Final residual = 2.85453e-05, No Iterations 1
Min/max T:348.969 400
GAMG:  Solving for p_rgh, Initial residual = 0.000721498, Final residual = 4.96852e-06, No Iterations 7
time step continuity errors : sum local = 1.78655e-05, global = -8.08153e-06, cumulative = -0.0636149
Min/max rho:1000 1000
ExecutionTime = 201.7 s  ClockTime = 207 s

Time = 33


Solving for fluid region air
DILUPBiCGStab:  Solving for Ux, Initial residual = 0.00332821, Final residual = 1.39784e-05, No Iterations 1
DILUPBiCGStab:  Solving for Uy, Initial residual = 0.00371843, Final residual = 1.46876e-05, No Iterations 1
DILUPBiCGStab:  Solving for Uz, Initial residual = 0.00373094, Final residual = 1.36464e-05, No Iterations 1
DILUPBiCGStab:  Solving for h, Initial residual = 0.010128, Final residual = 3.78913e-05, No Iterations 1
Min/max T:299.974 304.361
GAMG:  Solving for p_rgh, Initial residual = 0.0155098, Final residual = 8.87745e-05, No Iterations 4
time step continuity errors : sum local = 0.000253451, global = 5.60539e-05, cumulative = -0.0635588
Min/max rho:1.15306 1.17092
DILUPBiCGStab:  Solving for epsilon, Initial residual = 0.00573992, Final residual = 3.20434e-05, No Iterations 1
DILUPBiCGStab:  Solving for k, Initial residual = 0.0119471, Final residual = 4.42138e-05, No Iterations 1

Solving for fluid region porous
DILUPBiCGStab:  Solving for Ux, Initial residual = 0.00684076, Final residual = 3.24847e-05, No Iterations 1
DILUPBiCGStab:  Solving for Uy, Initial residual = 0.0133639, Final residual = 6.36706e-05, No Iterations 1
DILUPBiCGStab:  Solving for Uz, Initial residual = 0.00635912, Final residual = 5.02337e-05, No Iterations 1
DILUPBiCGStab:  Solving for h, Initial residual = 0.0126544, Final residual = 2.77458e-05, No Iterations 1
Min/max T:348.935 400
GAMG:  Solving for p_rgh, Initial residual = 0.000696483, Final residual = 4.78918e-06, No Iterations 7
time step continuity errors : sum local = 1.7031e-05, global = -7.70665e-06, cumulative = -0.0635665
Min/max rho:1000 1000
ExecutionTime = 204.14 s  ClockTime = 209 s

Time = 34


Solving for fluid region air
DILUPBiCGStab:  Solving for Ux, Initial residual = 0.00328125, Final residual = 1.37009e-05, No Iterations 1
DILUPBiCGStab:  Solving for Uy, Initial residual = 0.0036658, Final residual = 1.43862e-05, No Iterations 1
DILUPBiCGStab:  Solving for Uz, Initial residual = 0.00367733, Final residual = 1.33458e-05, No Iterations 1
DILUPBiCGStab:  Solving for h, Initial residual = 0.00989505, Final residual = 3.67658e-05, No Iterations 1
Min/max T:299.974 304.488
GAMG:  Solving for p_rgh, Initial residual = 0.0151962, Final residual = 0.000138302, No Iterations 3
time step continuity errors : sum local = 0.000393128, global = -5.0186e-05, cumulative = -0.0636167
Min/max rho:1.15255 1.17092
DILUPBiCGStab:  Solving for epsilon, Initial residual = 0.00561195, Final residual = 3.14717e-05, No Iterations 1
DILUPBiCGStab:  Solving for k, Initial residual = 0.0116447, Final residual = 4.27778e-05, No Iterations 1

Solving for fluid region porous
DILUPBiCGStab:  Solving for Ux, Initial residual = 0.00658236, Final residual = 3.09641e-05, No Iterations 1
DILUPBiCGStab:  Solving for Uy, Initial residual = 0.0129241, Final residual = 6.10336e-05, No Iterations 1
DILUPBiCGStab:  Solving for Uz, Initial residual = 0.00611542, Final residual = 4.75e-05, No Iterations 1
DILUPBiCGStab:  Solving for h, Initial residual = 0.0124448, Final residual = 2.70623e-05, No Iterations 1
Min/max T:348.901 400
GAMG:  Solving for p_rgh, Initial residual = 0.000673432, Final residual = 4.622e-06, No Iterations 7
time step continuity errors : sum local = 1.63528e-05, global = -7.43108e-06, cumulative = -0.0636242
Min/max rho:1000 1000
ExecutionTime = 206.5 s  ClockTime = 211 s

Time = 35


Solving for fluid region air
DILUPBiCGStab:  Solving for Ux, Initial residual = 0.00323908, Final residual = 1.34426e-05, No Iterations 1
DILUPBiCGStab:  Solving for Uy, Initial residual = 0.00361792, Final residual = 1.41055e-05, No Iterations 1
DILUPBiCGStab:  Solving for Uz, Initial residual = 0.00362431, Final residual = 1.307e-05, No Iterations 1
DILUPBiCGStab:  Solving for h, Initial residual = 0.0096761, Final residual = 3.57e-05, No Iterations 1
Min/max T:299.974 304.61
GAMG:  Solving for p_rgh, Initial residual = 0.0148836, Final residual = 0.000146524, No Iterations 3
time step continuity errors : sum local = 0.000414748, global = -5.85564e-05, cumulative = -0.0636827
Min/max rho:1.15206 1.17092
DILUPBiCGStab:  Solving for epsilon, Initial residual = 0.00548971, Final residual = 3.08351e-05, No Iterations 1
DILUPBiCGStab:  Solving for k, Initial residual = 0.0113571, Final residual = 4.14446e-05, No Iterations 1

Solving for fluid region porous
DILUPBiCGStab:  Solving for Ux, Initial residual = 0.00634907, Final residual = 2.95823e-05, No Iterations 1
DILUPBiCGStab:  Solving for Uy, Initial residual = 0.0125102, Final residual = 5.85675e-05, No Iterations 1
DILUPBiCGStab:  Solving for Uz, Initial residual = 0.00588802, Final residual = 4.49903e-05, No Iterations 1
DILUPBiCGStab:  Solving for h, Initial residual = 0.0122476, Final residual = 2.64153e-05, No Iterations 1
Min/max T:348.867 400
GAMG:  Solving for p_rgh, Initial residual = 0.000651139, Final residual = 4.48705e-06, No Iterations 7
time step continuity errors : sum local = 1.57339e-05, global = -7.14489e-06, cumulative = -0.0636899
Min/max rho:1000 1000
ExecutionTime = 208.81 s  ClockTime = 214 s

Time = 36


Solving for fluid region air
DILUPBiCGStab:  Solving for Ux, Initial residual = 0.00319788, Final residual = 1.31882e-05, No Iterations 1
DILUPBiCGStab:  Solving for Uy, Initial residual = 0.00357097, Final residual = 1.38298e-05, No Iterations 1
DILUPBiCGStab:  Solving for Uz, Initial residual = 0.00357442, Final residual = 1.28058e-05, No Iterations 1
DILUPBiCGStab:  Solving for h, Initial residual = 0.00946998, Final residual = 3.46903e-05, No Iterations 1
Min/max T:299.974 304.727
GAMG:  Solving for p_rgh, Initial residual = 0.0145061, Final residual = 8.56495e-05, No Iterations 4
time step continuity errors : sum local = 0.000241511, global = 5.1424e-05, cumulative = -0.0636384
Min/max rho:1.15159 1.17092
DILUPBiCGStab:  Solving for epsilon, Initial residual = 0.00536944, Final residual = 3.01855e-05, No Iterations 1
DILUPBiCGStab:  Solving for k, Initial residual = 0.0110808, Final residual = 4.02011e-05, No Iterations 1

Solving for fluid region porous
DILUPBiCGStab:  Solving for Ux, Initial residual = 0.0061287, Final residual = 2.82864e-05, No Iterations 1
DILUPBiCGStab:  Solving for Uy, Initial residual = 0.0121201, Final residual = 5.62742e-05, No Iterations 1
DILUPBiCGStab:  Solving for Uz, Initial residual = 0.00567537, Final residual = 4.26887e-05, No Iterations 1
DILUPBiCGStab:  Solving for h, Initial residual = 0.0120719, Final residual = 2.58033e-05, No Iterations 1
Min/max T:348.833 400
GAMG:  Solving for p_rgh, Initial residual = 0.000630238, Final residual = 4.36187e-06, No Iterations 7
time step continuity errors : sum local = 1.51821e-05, global = -6.92475e-06, cumulative = -0.0636454
Min/max rho:1000 1000
ExecutionTime = 211.23 s  ClockTime = 216 s

Time = 37


Solving for fluid region air
DILUPBiCGStab:  Solving for Ux, Initial residual = 0.00315721, Final residual = 1.29426e-05, No Iterations 1
DILUPBiCGStab:  Solving for Uy, Initial residual = 0.00352485, Final residual = 1.35624e-05, No Iterations 1
DILUPBiCGStab:  Solving for Uz, Initial residual = 0.00352792, Final residual = 1.25551e-05, No Iterations 1
DILUPBiCGStab:  Solving for h, Initial residual = 0.00927567, Final residual = 3.37352e-05, No Iterations 1
Min/max T:299.974 304.838
GAMG:  Solving for p_rgh, Initial residual = 0.0142039, Final residual = 0.000126919, No Iterations 3
time step continuity errors : sum local = 0.000356655, global = -4.39124e-05, cumulative = -0.0636893
Min/max rho:1.15115 1.17092
DILUPBiCGStab:  Solving for epsilon, Initial residual = 0.00525374, Final residual = 2.95561e-05, No Iterations 1
DILUPBiCGStab:  Solving for k, Initial residual = 0.0108156, Final residual = 3.90555e-05, No Iterations 1

Solving for fluid region porous
DILUPBiCGStab:  Solving for Ux, Initial residual = 0.00591974, Final residual = 2.70687e-05, No Iterations 1
DILUPBiCGStab:  Solving for Uy, Initial residual = 0.0117519, Final residual = 5.41373e-05, No Iterations 1
DILUPBiCGStab:  Solving for Uz, Initial residual = 0.0054761, Final residual = 4.0566e-05, No Iterations 1
DILUPBiCGStab:  Solving for h, Initial residual = 0.0119074, Final residual = 2.52738e-05, No Iterations 1
Min/max T:348.8 400
GAMG:  Solving for p_rgh, Initial residual = 0.000610848, Final residual = 4.25532e-06, No Iterations 7
time step continuity errors : sum local = 1.46969e-05, global = -6.72048e-06, cumulative = -0.063696
Min/max rho:1000 1000
ExecutionTime = 213.58 s  ClockTime = 219 s

Time = 38


Solving for fluid region air
DILUPBiCGStab:  Solving for Ux, Initial residual = 0.00312099, Final residual = 1.27139e-05, No Iterations 1
DILUPBiCGStab:  Solving for Uy, Initial residual = 0.00348318, Final residual = 1.33138e-05, No Iterations 1
DILUPBiCGStab:  Solving for Uz, Initial residual = 0.0034821, Final residual = 1.23224e-05, No Iterations 1
DILUPBiCGStab:  Solving for h, Initial residual = 0.009092, Final residual = 3.28315e-05, No Iterations 1
Min/max T:299.974 304.944
GAMG:  Solving for p_rgh, Initial residual = 0.0139564, Final residual = 0.000132664, No Iterations 3
time step continuity errors : sum local = 0.000371552, global = -4.99338e-05, cumulative = -0.0637459
Min/max rho:1.15072 1.17092
DILUPBiCGStab:  Solving for epsilon, Initial residual = 0.00514286, Final residual = 2.89451e-05, No Iterations 1
DILUPBiCGStab:  Solving for k, Initial residual = 0.0105603, Final residual = 3.79951e-05, No Iterations 1

Solving for fluid region porous
DILUPBiCGStab:  Solving for Ux, Initial residual = 0.00572124, Final residual = 2.59295e-05, No Iterations 1
DILUPBiCGStab:  Solving for Uy, Initial residual = 0.011404, Final residual = 5.21588e-05, No Iterations 1
DILUPBiCGStab:  Solving for Uz, Initial residual = 0.00528901, Final residual = 3.85894e-05, No Iterations 1
DILUPBiCGStab:  Solving for h, Initial residual = 0.0117542, Final residual = 2.47354e-05, No Iterations 1
Min/max T:348.767 400
GAMG:  Solving for p_rgh, Initial residual = 0.000592443, Final residual = 4.15177e-06, No Iterations 7
time step continuity errors : sum local = 1.42249e-05, global = -6.54161e-06, cumulative = -0.0637525
Min/max rho:1000 1000
ExecutionTime = 216.04 s  ClockTime = 221 s

Time = 39


Solving for fluid region air
DILUPBiCGStab:  Solving for Ux, Initial residual = 0.00308481, Final residual = 1.24902e-05, No Iterations 1
DILUPBiCGStab:  Solving for Uy, Initial residual = 0.0034416, Final residual = 1.30718e-05, No Iterations 1
DILUPBiCGStab:  Solving for Uz, Initial residual = 0.00343884, Final residual = 1.21027e-05, No Iterations 1
DILUPBiCGStab:  Solving for h, Initial residual = 0.00891809, Final residual = 3.19777e-05, No Iterations 1
Min/max T:299.974 305.045
GAMG:  Solving for p_rgh, Initial residual = 0.013743, Final residual = 0.000136843, No Iterations 3
time step continuity errors : sum local = 0.000382105, global = -5.52655e-05, cumulative = -0.0638077
Min/max rho:1.15032 1.17092
DILUPBiCGStab:  Solving for epsilon, Initial residual = 0.00503586, Final residual = 2.83796e-05, No Iterations 1
DILUPBiCGStab:  Solving for k, Initial residual = 0.0103138, Final residual = 3.69863e-05, No Iterations 1

Solving for fluid region porous
DILUPBiCGStab:  Solving for Ux, Initial residual = 0.00553248, Final residual = 2.48598e-05, No Iterations 1
DILUPBiCGStab:  Solving for Uy, Initial residual = 0.0110744, Final residual = 5.02807e-05, No Iterations 1
DILUPBiCGStab:  Solving for Uz, Initial residual = 0.00511304, Final residual = 3.67641e-05, No Iterations 1
DILUPBiCGStab:  Solving for h, Initial residual = 0.0116152, Final residual = 2.4277e-05, No Iterations 1
Min/max T:348.733 400
GAMG:  Solving for p_rgh, Initial residual = 0.000574986, Final residual = 4.05357e-06, No Iterations 7
time step continuity errors : sum local = 1.38033e-05, global = -6.38744e-06, cumulative = -0.0638141
Min/max rho:1000 1000
ExecutionTime = 218.49 s  ClockTime = 224 s

Time = 40


Solving for fluid region air
DILUPBiCGStab:  Solving for Ux, Initial residual = 0.00304938, Final residual = 1.22726e-05, No Iterations 1
DILUPBiCGStab:  Solving for Uy, Initial residual = 0.00340093, Final residual = 1.28373e-05, No Iterations 1
DILUPBiCGStab:  Solving for Uz, Initial residual = 0.00339738, Final residual = 1.19002e-05, No Iterations 1
DILUPBiCGStab:  Solving for h, Initial residual = 0.00875307, Final residual = 3.11703e-05, No Iterations 1
Min/max T:299.974 305.142
GAMG:  Solving for p_rgh, Initial residual = 0.0135636, Final residual = 0.00013481, No Iterations 3
time step continuity errors : sum local = 0.000375417, global = -5.53559e-05, cumulative = -0.0638695
Min/max rho:1.14993 1.17092
DILUPBiCGStab:  Solving for epsilon, Initial residual = 0.00493442, Final residual = 2.78128e-05, No Iterations 1
DILUPBiCGStab:  Solving for k, Initial residual = 0.0100776, Final residual = 3.60039e-05, No Iterations 1

Solving for fluid region porous
DILUPBiCGStab:  Solving for Ux, Initial residual = 0.00535284, Final residual = 2.38486e-05, No Iterations 1
DILUPBiCGStab:  Solving for Uy, Initial residual = 0.010762, Final residual = 4.85018e-05, No Iterations 1
DILUPBiCGStab:  Solving for Uz, Initial residual = 0.00494723, Final residual = 3.51152e-05, No Iterations 1
DILUPBiCGStab:  Solving for h, Initial residual = 0.011489, Final residual = 2.3846e-05, No Iterations 1
Min/max T:348.701 400
GAMG:  Solving for p_rgh, Initial residual = 0.000558965, Final residual = 3.95266e-06, No Iterations 7
time step continuity errors : sum local = 1.33808e-05, global = -6.22136e-06, cumulative = -0.0638757
Min/max rho:1000 1000
ExecutionTime = 220.87 s  ClockTime = 226 s

Time = 41


Solving for fluid region air
DILUPBiCGStab:  Solving for Ux, Initial residual = 0.00301534, Final residual = 1.20628e-05, No Iterations 1
DILUPBiCGStab:  Solving for Uy, Initial residual = 0.00336168, Final residual = 1.26105e-05, No Iterations 1
DILUPBiCGStab:  Solving for Uz, Initial residual = 0.00335711, Final residual = 1.17149e-05, No Iterations 1
DILUPBiCGStab:  Solving for h, Initial residual = 0.00859639, Final residual = 3.04075e-05, No Iterations 1
Min/max T:299.974 305.233
GAMG:  Solving for p_rgh, Initial residual = 0.0133935, Final residual = 0.000129069, No Iterations 3
time step continuity errors : sum local = 0.000358559, global = -5.17729e-05, cumulative = -0.0639275
Min/max rho:1.14957 1.17092
DILUPBiCGStab:  Solving for epsilon, Initial residual = 0.00483725, Final residual = 2.7275e-05, No Iterations 1
DILUPBiCGStab:  Solving for k, Initial residual = 0.00985334, Final residual = 3.50543e-05, No Iterations 1

Solving for fluid region porous
DILUPBiCGStab:  Solving for Ux, Initial residual = 0.00518157, Final residual = 2.28955e-05, No Iterations 1
DILUPBiCGStab:  Solving for Uy, Initial residual = 0.0104655, Final residual = 4.68326e-05, No Iterations 1
DILUPBiCGStab:  Solving for Uz, Initial residual = 0.00479075, Final residual = 3.36111e-05, No Iterations 1
DILUPBiCGStab:  Solving for h, Initial residual = 0.0113725, Final residual = 2.34293e-05, No Iterations 1
Min/max T:348.668 400
GAMG:  Solving for p_rgh, Initial residual = 0.000544382, Final residual = 3.86075e-06, No Iterations 7
time step continuity errors : sum local = 1.29825e-05, global = -6.06331e-06, cumulative = -0.0639335
Min/max rho:1000 1000
ExecutionTime = 223.27 s  ClockTime = 229 s

Time = 42


Solving for fluid region air
DILUPBiCGStab:  Solving for Ux, Initial residual = 0.00298275, Final residual = 1.18603e-05, No Iterations 1
DILUPBiCGStab:  Solving for Uy, Initial residual = 0.00332391, Final residual = 1.23906e-05, No Iterations 1
DILUPBiCGStab:  Solving for Uz, Initial residual = 0.00331788, Final residual = 1.15433e-05, No Iterations 1
DILUPBiCGStab:  Solving for h, Initial residual = 0.00844741, Final residual = 2.9688e-05, No Iterations 1
Min/max T:299.974 305.32
GAMG:  Solving for p_rgh, Initial residual = 0.0132252, Final residual = 0.000123497, No Iterations 3
time step continuity errors : sum local = 0.00034232, global = -4.77376e-05, cumulative = -0.0639813
Min/max rho:1.14922 1.17092
DILUPBiCGStab:  Solving for epsilon, Initial residual = 0.00474156, Final residual = 2.67435e-05, No Iterations 1
DILUPBiCGStab:  Solving for k, Initial residual = 0.00963618, Final residual = 3.41397e-05, No Iterations 1

Solving for fluid region porous
DILUPBiCGStab:  Solving for Ux, Initial residual = 0.00501811, Final residual = 2.19966e-05, No Iterations 1
DILUPBiCGStab:  Solving for Uy, Initial residual = 0.0101837, Final residual = 4.52698e-05, No Iterations 1
DILUPBiCGStab:  Solving for Uz, Initial residual = 0.00464282, Final residual = 3.21767e-05, No Iterations 1
DILUPBiCGStab:  Solving for h, Initial residual = 0.0112641, Final residual = 2.30789e-05, No Iterations 1
Min/max T:348.636 400
GAMG:  Solving for p_rgh, Initial residual = 0.000530096, Final residual = 3.76556e-06, No Iterations 7
time step continuity errors : sum local = 1.26038e-05, global = -5.90268e-06, cumulative = -0.0639872
Min/max rho:1000 1000
ExecutionTime = 225.75 s  ClockTime = 231 s

Time = 43


Solving for fluid region air
DILUPBiCGStab:  Solving for Ux, Initial residual = 0.00295128, Final residual = 1.16639e-05, No Iterations 1
DILUPBiCGStab:  Solving for Uy, Initial residual = 0.00328717, Final residual = 1.21776e-05, No Iterations 1
DILUPBiCGStab:  Solving for Uz, Initial residual = 0.00328017, Final residual = 1.13787e-05, No Iterations 1
DILUPBiCGStab:  Solving for h, Initial residual = 0.00830554, Final residual = 2.90079e-05, No Iterations 1
Min/max T:299.975 305.402
GAMG:  Solving for p_rgh, Initial residual = 0.0130679, Final residual = 0.000120022, No Iterations 3
time step continuity errors : sum local = 0.000332005, global = -4.52795e-05, cumulative = -0.0640325
Min/max rho:1.14889 1.17092
DILUPBiCGStab:  Solving for epsilon, Initial residual = 0.00464948, Final residual = 2.6206e-05, No Iterations 1
DILUPBiCGStab:  Solving for k, Initial residual = 0.00942627, Final residual = 3.32537e-05, No Iterations 1

Solving for fluid region porous
DILUPBiCGStab:  Solving for Ux, Initial residual = 0.00486195, Final residual = 2.11475e-05, No Iterations 1
DILUPBiCGStab:  Solving for Uy, Initial residual = 0.00991565, Final residual = 4.37934e-05, No Iterations 1
DILUPBiCGStab:  Solving for Uz, Initial residual = 0.0045028, Final residual = 3.08304e-05, No Iterations 1
DILUPBiCGStab:  Solving for h, Initial residual = 0.0111697, Final residual = 2.27172e-05, No Iterations 1
Min/max T:348.605 400
GAMG:  Solving for p_rgh, Initial residual = 0.000516636, Final residual = 3.67278e-06, No Iterations 7
time step continuity errors : sum local = 1.22077e-05, global = -5.76733e-06, cumulative = -0.0640382
Min/max rho:1000 1000
ExecutionTime = 228.1 s  ClockTime = 233 s

Time = 44


Solving for fluid region air
DILUPBiCGStab:  Solving for Ux, Initial residual = 0.00292075, Final residual = 1.14731e-05, No Iterations 1
DILUPBiCGStab:  Solving for Uy, Initial residual = 0.00325144, Final residual = 1.19716e-05, No Iterations 1
DILUPBiCGStab:  Solving for Uz, Initial residual = 0.00324393, Final residual = 1.12211e-05, No Iterations 1
DILUPBiCGStab:  Solving for h, Initial residual = 0.00817033, Final residual = 2.83649e-05, No Iterations 1
Min/max T:299.975 305.48
GAMG:  Solving for p_rgh, Initial residual = 0.0129106, Final residual = 0.000118101, No Iterations 3
time step continuity errors : sum local = 0.000326065, global = -4.44162e-05, cumulative = -0.0640826
Min/max rho:1.14858 1.17092
DILUPBiCGStab:  Solving for epsilon, Initial residual = 0.00456274, Final residual = 2.56747e-05, No Iterations 1
DILUPBiCGStab:  Solving for k, Initial residual = 0.00922286, Final residual = 3.24133e-05, No Iterations 1

Solving for fluid region porous
DILUPBiCGStab:  Solving for Ux, Initial residual = 0.0047129, Final residual = 2.03466e-05, No Iterations 1
DILUPBiCGStab:  Solving for Uy, Initial residual = 0.00966028, Final residual = 4.24079e-05, No Iterations 1
DILUPBiCGStab:  Solving for Uz, Initial residual = 0.00437006, Final residual = 2.95463e-05, No Iterations 1
DILUPBiCGStab:  Solving for h, Initial residual = 0.011083, Final residual = 2.24154e-05, No Iterations 1
Min/max T:348.574 400
GAMG:  Solving for p_rgh, Initial residual = 0.000503971, Final residual = 3.55904e-06, No Iterations 7
time step continuity errors : sum local = 1.17572e-05, global = -5.54904e-06, cumulative = -0.0640882
Min/max rho:1000 1000
ExecutionTime = 230.5 s  ClockTime = 236 s

Time = 45


Solving for fluid region air
DILUPBiCGStab:  Solving for Ux, Initial residual = 0.00289101, Final residual = 1.12866e-05, No Iterations 1
DILUPBiCGStab:  Solving for Uy, Initial residual = 0.00321652, Final residual = 1.17704e-05, No Iterations 1
DILUPBiCGStab:  Solving for Uz, Initial residual = 0.0032093, Final residual = 1.1071e-05, No Iterations 1
DILUPBiCGStab:  Solving for h, Initial residual = 0.00804123, Final residual = 2.77563e-05, No Iterations 1
Min/max T:299.975 305.554
GAMG:  Solving for p_rgh, Initial residual = 0.0127872, Final residual = 0.000116595, No Iterations 3
time step continuity errors : sum local = 0.00032136, global = -4.41101e-05, cumulative = -0.0641323
Min/max rho:1.14828 1.17092
DILUPBiCGStab:  Solving for epsilon, Initial residual = 0.00448084, Final residual = 2.51513e-05, No Iterations 1
DILUPBiCGStab:  Solving for k, Initial residual = 0.0090249, Final residual = 3.16078e-05, No Iterations 1

Solving for fluid region porous
DILUPBiCGStab:  Solving for Ux, Initial residual = 0.00457132, Final residual = 1.96104e-05, No Iterations 1
[...]
GAMG:  Solving for p_rgh, Initial residual = 0.000386869, Final residual = 2.13084e-06, No Iterations 2
time step continuity errors : sum local = 7.62149e-06, global = -4.99129e-09, cumulative = -0.067181
Min/max rho:1.12325 1.17087
DILUPBiCGStab:  Solving for epsilon, Initial residual = 9.89364e-05, Final residual = 3.24313e-07, No Iterations 1
DILUPBiCGStab:  Solving for k, Initial residual = 0.000141611, Final residual = 4.20276e-07, No Iterations 1

Solving for fluid region porous
DILUPBiCGStab:  Solving for Ux, Initial residual = 1.2524e-09, Final residual = 1.2524e-09, No Iterations 0
DILUPBiCGStab:  Solving for Uy, Initial residual = 1.66537e-08, Final residual = 1.66537e-08, No Iterations 0
DILUPBiCGStab:  Solving for Uz, Initial residual = 2.70813e-08, Final residual = 2.70813e-08, No Iterations 0
DILUPBiCGStab:  Solving for h, Initial residual = 1.0848e-06, Final residual = 3.17828e-09, No Iterations 1
Min/max T:391.279 400
GAMG:  Solving for p_rgh, Initial residual = 8.01753e-07, Final residual = 5.5811e-07, No Iterations 10
time step continuity errors : sum local = 1.84029e-06, global = 1.4925e-08, cumulative = -0.0671809
Min/max rho:1000 1000
ExecutionTime = 4882.18 s  ClockTime = 5074 s

Time = 1793


Solving for fluid region air
DILUPBiCGStab:  Solving for Ux, Initial residual = 6.21003e-05, Final residual = 2.32568e-07, No Iterations 1
DILUPBiCGStab:  Solving for Uy, Initial residual = 5.804e-05, Final residual = 1.99001e-07, No Iterations 1
DILUPBiCGStab:  Solving for Uz, Initial residual = 2.98519e-05, Final residual = 1.19835e-07, No Iterations 1
DILUPBiCGStab:  Solving for h, Initial residual = 0.000112373, Final residual = 2.8473e-07, No Iterations 1
Min/max T:299.986 311.937
GAMG:  Solving for p_rgh, Initial residual = 0.000403857, Final residual = 2.18357e-06, No Iterations 2
time step continuity errors : sum local = 7.81012e-06, global = 1.15722e-09, cumulative = -0.0671809
Min/max rho:1.12325 1.17087
DILUPBiCGStab:  Solving for epsilon, Initial residual = 9.86805e-05, Final residual = 3.23514e-07, No Iterations 1
DILUPBiCGStab:  Solving for k, Initial residual = 0.000141308, Final residual = 4.1934e-07, No Iterations 1

Solving for fluid region porous
DILUPBiCGStab:  Solving for Ux, Initial residual = 6.08688e-10, Final residual = 6.08688e-10, No Iterations 0
DILUPBiCGStab:  Solving for Uy, Initial residual = 1.95533e-08, Final residual = 1.95533e-08, No Iterations 0
DILUPBiCGStab:  Solving for Uz, Initial residual = 2.73739e-08, Final residual = 2.73739e-08, No Iterations 0
DILUPBiCGStab:  Solving for h, Initial residual = 1.08242e-06, Final residual = 3.17066e-09, No Iterations 1
Min/max T:391.279 400
GAMG:  Solving for p_rgh, Initial residual = 8.01899e-07, Final residual = 5.57156e-07, No Iterations 10
time step continuity errors : sum local = 1.83851e-06, global = -1.90788e-09, cumulative = -0.0671809
Min/max rho:1000 1000
ExecutionTime = 4884.52 s  ClockTime = 5076 s

Time = 1794


Solving for fluid region air
DILUPBiCGStab:  Solving for Ux, Initial residual = 6.19368e-05, Final residual = 2.31783e-07, No Iterations 1
DILUPBiCGStab:  Solving for Uy, Initial residual = 5.79437e-05, Final residual = 1.98473e-07, No Iterations 1
DILUPBiCGStab:  Solving for Uz, Initial residual = 2.97759e-05, Final residual = 1.19477e-07, No Iterations 1
DILUPBiCGStab:  Solving for h, Initial residual = 0.000112179, Final residual = 2.84241e-07, No Iterations 1
Min/max T:299.986 311.936
GAMG:  Solving for p_rgh, Initial residual = 0.000391758, Final residual = 2.16382e-06, No Iterations 2
time step continuity errors : sum local = 7.73945e-06, global = -3.76761e-08, cumulative = -0.067181
Min/max rho:1.12325 1.17087
DILUPBiCGStab:  Solving for epsilon, Initial residual = 9.84227e-05, Final residual = 3.2268e-07, No Iterations 1
DILUPBiCGStab:  Solving for k, Initial residual = 0.000141008, Final residual = 4.18402e-07, No Iterations 1

Solving for fluid region porous
DILUPBiCGStab:  Solving for Ux, Initial residual = 3.57471e-10, Final residual = 3.57471e-10, No Iterations 0
DILUPBiCGStab:  Solving for Uy, Initial residual = 1.76783e-08, Final residual = 1.76783e-08, No Iterations 0
DILUPBiCGStab:  Solving for Uz, Initial residual = 2.77623e-08, Final residual = 2.77623e-08, No Iterations 0
DILUPBiCGStab:  Solving for h, Initial residual = 1.08005e-06, Final residual = 3.16312e-09, No Iterations 1
Min/max T:391.279 400
GAMG:  Solving for p_rgh, Initial residual = 8.05418e-07, Final residual = 5.63858e-07, No Iterations 10
time step continuity errors : sum local = 1.84789e-06, global = -9.07013e-09, cumulative = -0.067181
Min/max rho:1000 1000
ExecutionTime = 4886.89 s  ClockTime = 5079 s

Time = 1795


Solving for fluid region air
DILUPBiCGStab:  Solving for Ux, Initial residual = 6.17809e-05, Final residual = 2.31035e-07, No Iterations 1
DILUPBiCGStab:  Solving for Uy, Initial residual = 5.78411e-05, Final residual = 1.97902e-07, No Iterations 1
DILUPBiCGStab:  Solving for Uz, Initial residual = 2.96974e-05, Final residual = 1.19102e-07, No Iterations 1
DILUPBiCGStab:  Solving for h, Initial residual = 0.000111983, Final residual = 2.83684e-07, No Iterations 1
Min/max T:299.986 311.936
GAMG:  Solving for p_rgh, Initial residual = 0.000368208, Final residual = 2.11165e-06, No Iterations 2
time step continuity errors : sum local = 7.5536e-06, global = -2.37491e-08, cumulative = -0.067181
Min/max rho:1.12325 1.17087
DILUPBiCGStab:  Solving for epsilon, Initial residual = 9.81692e-05, Final residual = 3.21896e-07, No Iterations 1
DILUPBiCGStab:  Solving for k, Initial residual = 0.000140708, Final residual = 4.17452e-07, No Iterations 1

Solving for fluid region porous
DILUPBiCGStab:  Solving for Ux, Initial residual = 7.50976e-10, Final residual = 7.50976e-10, No Iterations 0
DILUPBiCGStab:  Solving for Uy, Initial residual = 1.89383e-08, Final residual = 1.89383e-08, No Iterations 0
DILUPBiCGStab:  Solving for Uz, Initial residual = 2.70857e-08, Final residual = 2.70857e-08, No Iterations 0
DILUPBiCGStab:  Solving for h, Initial residual = 1.07769e-06, Final residual = 3.15563e-09, No Iterations 1
Min/max T:391.279 400
GAMG:  Solving for p_rgh, Initial residual = 8.03516e-07, Final residual = 5.60989e-07, No Iterations 10
time step continuity errors : sum local = 1.82924e-06, global = 3.00773e-08, cumulative = -0.067181
Min/max rho:1000 1000
ExecutionTime = 4889.35 s  ClockTime = 5081 s

Time = 1796


Solving for fluid region air
DILUPBiCGStab:  Solving for Ux, Initial residual = 6.16319e-05, Final residual = 2.30548e-07, No Iterations 1
DILUPBiCGStab:  Solving for Uy, Initial residual = 5.7754e-05, Final residual = 1.97534e-07, No Iterations 1
DILUPBiCGStab:  Solving for Uz, Initial residual = 2.96263e-05, Final residual = 1.18855e-07, No Iterations 1
DILUPBiCGStab:  Solving for h, Initial residual = 0.000111791, Final residual = 2.83173e-07, No Iterations 1
Min/max T:299.986 311.936
GAMG:  Solving for p_rgh, Initial residual = 0.000362216, Final residual = 2.21145e-06, No Iterations 2
time step continuity errors : sum local = 7.91074e-06, global = 1.96465e-08, cumulative = -0.067181
Min/max rho:1.12325 1.17087
DILUPBiCGStab:  Solving for epsilon, Initial residual = 9.79205e-05, Final residual = 3.21178e-07, No Iterations 1
DILUPBiCGStab:  Solving for k, Initial residual = 0.000140411, Final residual = 4.16556e-07, No Iterations 1

Solving for fluid region porous
DILUPBiCGStab:  Solving for Ux, Initial residual = 1.39706e-09, Final residual = 1.39706e-09, No Iterations 0
DILUPBiCGStab:  Solving for Uy, Initial residual = 1.75726e-08, Final residual = 1.75726e-08, No Iterations 0
DILUPBiCGStab:  Solving for Uz, Initial residual = 2.73848e-08, Final residual = 2.73848e-08, No Iterations 0
DILUPBiCGStab:  Solving for h, Initial residual = 1.07533e-06, Final residual = 3.1481e-09, No Iterations 1
Min/max T:391.279 400
GAMG:  Solving for p_rgh, Initial residual = 7.99855e-07, Final residual = 5.57118e-07, No Iterations 10
time step continuity errors : sum local = 1.83751e-06, global = -2.31582e-09, cumulative = -0.067181
Min/max rho:1000 1000
ExecutionTime = 4891.88 s  ClockTime = 5084 s

Time = 1797


Solving for fluid region air
DILUPBiCGStab:  Solving for Ux, Initial residual = 6.14835e-05, Final residual = 2.30059e-07, No Iterations 1
DILUPBiCGStab:  Solving for Uy, Initial residual = 5.76701e-05, Final residual = 1.97146e-07, No Iterations 1
DILUPBiCGStab:  Solving for Uz, Initial residual = 2.95561e-05, Final residual = 1.18532e-07, No Iterations 1
DILUPBiCGStab:  Solving for h, Initial residual = 0.000111601, Final residual = 2.82669e-07, No Iterations 1
Min/max T:299.986 311.936
GAMG:  Solving for p_rgh, Initial residual = 0.00040766, Final residual = 2.1494e-06, No Iterations 2
time step continuity errors : sum local = 7.68862e-06, global = -6.07308e-10, cumulative = -0.067181
Min/max rho:1.12325 1.17087
DILUPBiCGStab:  Solving for epsilon, Initial residual = 9.76694e-05, Final residual = 3.20431e-07, No Iterations 1
DILUPBiCGStab:  Solving for k, Initial residual = 0.000140111, Final residual = 4.15605e-07, No Iterations 1

Solving for fluid region porous
DILUPBiCGStab:  Solving for Ux, Initial residual = 5.18272e-10, Final residual = 5.18272e-10, No Iterations 0
DILUPBiCGStab:  Solving for Uy, Initial residual = 1.72609e-08, Final residual = 1.72609e-08, No Iterations 0
DILUPBiCGStab:  Solving for Uz, Initial residual = 2.71207e-08, Final residual = 2.71207e-08, No Iterations 0
DILUPBiCGStab:  Solving for h, Initial residual = 1.07299e-06, Final residual = 3.14065e-09, No Iterations 1
Min/max T:391.279 400
GAMG:  Solving for p_rgh, Initial residual = 8.01665e-07, Final residual = 5.59375e-07, No Iterations 10
time step continuity errors : sum local = 1.84356e-06, global = -1.78958e-08, cumulative = -0.067181
Min/max rho:1000 1000
ExecutionTime = 4894.55 s  ClockTime = 5087 s

Time = 1798


Solving for fluid region air
DILUPBiCGStab:  Solving for Ux, Initial residual = 6.13222e-05, Final residual = 2.29325e-07, No Iterations 1
DILUPBiCGStab:  Solving for Uy, Initial residual = 5.7569e-05, Final residual = 1.96574e-07, No Iterations 1
DILUPBiCGStab:  Solving for Uz, Initial residual = 2.94824e-05, Final residual = 1.18193e-07, No Iterations 1
DILUPBiCGStab:  Solving for h, Initial residual = 0.000111406, Final residual = 2.82106e-07, No Iterations 1
Min/max T:299.986 311.936
GAMG:  Solving for p_rgh, Initial residual = 0.000376168, Final residual = 2.10755e-06, No Iterations 2
time step continuity errors : sum local = 7.53924e-06, global = -1.90996e-08, cumulative = -0.067181
Min/max rho:1.12325 1.17087
DILUPBiCGStab:  Solving for epsilon, Initial residual = 9.74156e-05, Final residual = 3.19598e-07, No Iterations 1
DILUPBiCGStab:  Solving for k, Initial residual = 0.000139815, Final residual = 4.14693e-07, No Iterations 1

Solving for fluid region porous
DILUPBiCGStab:  Solving for Ux, Initial residual = 8.84945e-10, Final residual = 8.84945e-10, No Iterations 0
DILUPBiCGStab:  Solving for Uy, Initial residual = 1.995e-08, Final residual = 1.995e-08, No Iterations 0
DILUPBiCGStab:  Solving for Uz, Initial residual = 2.72899e-08, Final residual = 2.72899e-08, No Iterations 0
DILUPBiCGStab:  Solving for h, Initial residual = 1.07065e-06, Final residual = 3.13318e-09, No Iterations 1
Min/max T:391.279 400
GAMG:  Solving for p_rgh, Initial residual = 7.98606e-07, Final residual = 5.64571e-07, No Iterations 10
time step continuity errors : sum local = 1.83344e-06, global = -1.58013e-08, cumulative = -0.067181
Min/max rho:1000 1000
ExecutionTime = 4897 s  ClockTime = 5090 s

Time = 1799


Solving for fluid region air
DILUPBiCGStab:  Solving for Ux, Initial residual = 6.11741e-05, Final residual = 2.28748e-07, No Iterations 1
DILUPBiCGStab:  Solving for Uy, Initial residual = 5.74846e-05, Final residual = 1.96322e-07, No Iterations 1
DILUPBiCGStab:  Solving for Uz, Initial residual = 2.94052e-05, Final residual = 1.1787e-07, No Iterations 1
DILUPBiCGStab:  Solving for h, Initial residual = 0.000111215, Final residual = 2.8161e-07, No Iterations 1
Min/max T:299.986 311.935
GAMG:  Solving for p_rgh, Initial residual = 0.000374226, Final residual = 2.1878e-06, No Iterations 2
time step continuity errors : sum local = 7.82672e-06, global = 3.08327e-09, cumulative = -0.067181
Min/max rho:1.12325 1.17087
DILUPBiCGStab:  Solving for epsilon, Initial residual = 9.71661e-05, Final residual = 3.18828e-07, No Iterations 1
DILUPBiCGStab:  Solving for k, Initial residual = 0.000139519, Final residual = 4.13792e-07, No Iterations 1

Solving for fluid region porous
DILUPBiCGStab:  Solving for Ux, Initial residual = 9.01149e-10, Final residual = 9.01149e-10, No Iterations 0
DILUPBiCGStab:  Solving for Uy, Initial residual = 2.21883e-08, Final residual = 2.21883e-08, No Iterations 0
DILUPBiCGStab:  Solving for Uz, Initial residual = 2.71262e-08, Final residual = 2.71262e-08, No Iterations 0
DILUPBiCGStab:  Solving for h, Initial residual = 1.06834e-06, Final residual = 3.12588e-09, No Iterations 1
Min/max T:391.279 400
GAMG:  Solving for p_rgh, Initial residual = 8.03074e-07, Final residual = 5.61075e-07, No Iterations 10
time step continuity errors : sum local = 1.83798e-06, global = 1.46598e-08, cumulative = -0.067181
Min/max rho:1000 1000
ExecutionTime = 4899.42 s  ClockTime = 5092 s

Time = 1800


Solving for fluid region air
DILUPBiCGStab:  Solving for Ux, Initial residual = 6.10336e-05, Final residual = 2.28257e-07, No Iterations 1
DILUPBiCGStab:  Solving for Uy, Initial residual = 5.73959e-05, Final residual = 1.95897e-07, No Iterations 1
DILUPBiCGStab:  Solving for Uz, Initial residual = 2.93353e-05, Final residual = 1.17591e-07, No Iterations 1
DILUPBiCGStab:  Solving for h, Initial residual = 0.000111024, Final residual = 2.81098e-07, No Iterations 1
Min/max T:299.986 311.935
GAMG:  Solving for p_rgh, Initial residual = 0.000393467, Final residual = 2.16173e-06, No Iterations 2
time step continuity errors : sum local = 7.73324e-06, global = 1.00127e-08, cumulative = -0.067181
Min/max rho:1.12326 1.17087
DILUPBiCGStab:  Solving for epsilon, Initial residual = 9.6918e-05, Final residual = 3.18097e-07, No Iterations 1
DILUPBiCGStab:  Solving for k, Initial residual = 0.000139222, Final residual = 4.12883e-07, No Iterations 1

Solving for fluid region porous
DILUPBiCGStab:  Solving for Ux, Initial residual = 1.59762e-09, Final residual = 1.59762e-09, No Iterations 0
DILUPBiCGStab:  Solving for Uy, Initial residual = 1.85427e-08, Final residual = 1.85427e-08, No Iterations 0
DILUPBiCGStab:  Solving for Uz, Initial residual = 2.76561e-08, Final residual = 2.76561e-08, No Iterations 0
DILUPBiCGStab:  Solving for h, Initial residual = 1.066e-06, Final residual = 3.11842e-09, No Iterations 1
Min/max T:391.279 400
GAMG:  Solving for p_rgh, Initial residual = 7.98116e-07, Final residual = 5.59915e-07, No Iterations 10
time step continuity errors : sum local = 1.83408e-06, global = -1.19848e-08, cumulative = -0.067181
Min/max rho:1000 1000
ExecutionTime = 4906.92 s  ClockTime = 5100 s

Time = 1801


Solving for fluid region air
DILUPBiCGStab:  Solving for Ux, Initial residual = 6.08763e-05, Final residual = 2.2752e-07, No Iterations 1
DILUPBiCGStab:  Solving for Uy, Initial residual = 5.72981e-05, Final residual = 1.95366e-07, No Iterations 1
DILUPBiCGStab:  Solving for Uz, Initial residual = 2.92596e-05, Final residual = 1.17221e-07, No Iterations 1
DILUPBiCGStab:  Solving for h, Initial residual = 0.000110831, Final residual = 2.80522e-07, No Iterations 1
Min/max T:299.986 311.935
GAMG:  Solving for p_rgh, Initial residual = 0.000367544, Final residual = 2.07562e-06, No Iterations 2
time step continuity errors : sum local = 7.4258e-06, global = -7.59014e-09, cumulative = -0.067181
Min/max rho:1.12326 1.17087
DILUPBiCGStab:  Solving for epsilon, Initial residual = 9.66691e-05, Final residual = 3.17327e-07, No Iterations 1
DILUPBiCGStab:  Solving for k, Initial residual = 0.000138927, Final residual = 4.11957e-07, No Iterations 1

Solving for fluid region porous
DILUPBiCGStab:  Solving for Ux, Initial residual = 3.53532e-10, Final residual = 3.53532e-10, No Iterations 0
DILUPBiCGStab:  Solving for Uy, Initial residual = 2.12353e-08, Final residual = 2.12353e-08, No Iterations 0
DILUPBiCGStab:  Solving for Uz, Initial residual = 2.69505e-08, Final residual = 2.69505e-08, No Iterations 0
DILUPBiCGStab:  Solving for h, Initial residual = 1.06371e-06, Final residual = 3.11111e-09, No Iterations 1
Min/max T:391.279 400
GAMG:  Solving for p_rgh, Initial residual = 8.05052e-07, Final residual = 5.58201e-07, No Iterations 10
time step continuity errors : sum local = 1.82686e-06, global = 2.09305e-09, cumulative = -0.067181
Min/max rho:1000 1000
ExecutionTime = 4909.37 s  ClockTime = 5102 s

Time = 1802


Solving for fluid region air
DILUPBiCGStab:  Solving for Ux, Initial residual = 6.07209e-05, Final residual = 2.26853e-07, No Iterations 1
DILUPBiCGStab:  Solving for Uy, Initial residual = 5.72106e-05, Final residual = 1.94941e-07, No Iterations 1
DILUPBiCGStab:  Solving for Uz, Initial residual = 2.91862e-05, Final residual = 1.16908e-07, No Iterations 1
DILUPBiCGStab:  Solving for h, Initial residual = 0.000110639, Final residual = 2.79998e-07, No Iterations 1
Min/max T:299.986 311.935
GAMG:  Solving for p_rgh, Initial residual = 0.000362804, Final residual = 2.14518e-06, No Iterations 2
time step continuity errors : sum local = 7.6746e-06, global = -3.16445e-08, cumulative = -0.067181
Min/max rho:1.12326 1.17087
DILUPBiCGStab:  Solving for epsilon, Initial residual = 9.64188e-05, Final residual = 3.16522e-07, No Iterations 1
DILUPBiCGStab:  Solving for k, Initial residual = 0.000138633, Final residual = 4.11063e-07, No Iterations 1

Solving for fluid region porous
DILUPBiCGStab:  Solving for Ux, Initial residual = 5.47943e-10, Final residual = 5.47943e-10, No Iterations 0
DILUPBiCGStab:  Solving for Uy, Initial residual = 1.81696e-08, Final residual = 1.81696e-08, No Iterations 0
DILUPBiCGStab:  Solving for Uz, Initial residual = 2.79712e-08, Final residual = 2.79712e-08, No Iterations 0
DILUPBiCGStab:  Solving for h, Initial residual = 1.0614e-06, Final residual = 3.10377e-09, No Iterations 1
Min/max T:391.279 400
GAMG:  Solving for p_rgh, Initial residual = 8.02146e-07, Final residual = 5.5861e-07, No Iterations 10
time step continuity errors : sum local = 1.83329e-06, global = -2.67566e-09, cumulative = -0.067181
Min/max rho:1000 1000
ExecutionTime = 4911.77 s  ClockTime = 5105 s

Time = 1803


Solving for fluid region air
DILUPBiCGStab:  Solving for Ux, Initial residual = 6.05714e-05, Final residual = 2.26334e-07, No Iterations 1
DILUPBiCGStab:  Solving for Uy, Initial residual = 5.71159e-05, Final residual = 1.94525e-07, No Iterations 1
DILUPBiCGStab:  Solving for Uz, Initial residual = 2.91141e-05, Final residual = 1.16596e-07, No Iterations 1
DILUPBiCGStab:  Solving for h, Initial residual = 0.000110449, Final residual = 2.79503e-07, No Iterations 1
Min/max T:299.986 311.935
GAMG:  Solving for p_rgh, Initial residual = 0.000367248, Final residual = 2.06868e-06, No Iterations 2
time step continuity errors : sum local = 7.40155e-06, global = -1.04799e-08, cumulative = -0.0671811
Min/max rho:1.12326 1.17087
DILUPBiCGStab:  Solving for epsilon, Initial residual = 9.61782e-05, Final residual = 3.15882e-07, No Iterations 1
DILUPBiCGStab:  Solving for k, Initial residual = 0.00013834, Final residual = 4.10179e-07, No Iterations 1

Solving for fluid region porous
DILUPBiCGStab:  Solving for Ux, Initial residual = 2.75371e-10, Final residual = 2.75371e-10, No Iterations 0
DILUPBiCGStab:  Solving for Uy, Initial residual = 1.84672e-08, Final residual = 1.84672e-08, No Iterations 0
DILUPBiCGStab:  Solving for Uz, Initial residual = 2.72294e-08, Final residual = 2.72294e-08, No Iterations 0
DILUPBiCGStab:  Solving for h, Initial residual = 1.05911e-06, Final residual = 3.09646e-09, No Iterations 1
Min/max T:391.279 400
